MODEL 1
REMARK VINA RESULT:      -5.7      0.000      0.000
REMARK  Name = CyclosporineA.pdb
REMARK  40 active torsions:
REMARK  status: ('A' for Active; 'I' for Inactive)
REMARK    1  A    between atoms: C1_1  and  C78_78
REMARK    2  A    between atoms: N7_7  and  C8_8
REMARK    3  A    between atoms: C9_9  and  C15_15
REMARK    4  A    between atoms: N11_11  and  C20_20
REMARK    5  A    between atoms: C12_12  and  C21_21
REMARK    6  A    between atoms: N14_14  and  C23_23
REMARK    7  A    between atoms: C15_15  and  C16_16
REMARK    8  A    between atoms: C16_16  and  C17_17
REMARK    9  A    between atoms: C16_16  and  C18_18
REMARK   10  A    between atoms: C21_21  and  C82_82
REMARK   11  A    between atoms: C24_24  and  C25_25
REMARK   12  A    between atoms: C25_25  and  C30_30
REMARK   13  A    between atoms: C25_25  and  C31_31
REMARK   14  A    between atoms: C26_26  and  O27_27
REMARK   15  A    between atoms: N28_28  and  C29_29
REMARK   16  A    between atoms: C32_32  and  C34_34
REMARK   17  A    between atoms: C34_34  and  C35_35
REMARK   18  A    between atoms: C34_34  and  O40_40
REMARK   19  A    between atoms: C35_35  and  C36_36
REMARK   20  A    between atoms: C35_35  and  C41_41
REMARK   21  A    between atoms: C36_36  and  C37_37
REMARK   22  A    between atoms: C38_38  and  C39_39
REMARK   23  A    between atoms: C44_44  and  C45_45
REMARK   24  A    between atoms: C45_45  and  C46_46
REMARK   25  A    between atoms: N49_49  and  C77_77
REMARK   26  A    between atoms: C53_53  and  C57_57
REMARK   27  A    between atoms: C57_57  and  C58_58
REMARK   28  A    between atoms: C58_58  and  C59_59
REMARK   29  A    between atoms: C58_58  and  C76_76
REMARK   30  A    between atoms: C61_61  and  C62_62
REMARK   31  A    between atoms: C62_62  and  C63_63
REMARK   32  A    between atoms: C62_62  and  C64_64
REMARK   33  A    between atoms: N66_66  and  C68_68
REMARK   34  A    between atoms: C67_67  and  C75_75
REMARK   35  A    between atoms: C73_73  and  C74_74
REMARK   36  A    between atoms: C75_75  and  C79_79
REMARK   37  A    between atoms: C79_79  and  C80_80
REMARK   38  A    between atoms: C79_79  and  C81_81
REMARK   39  A    between atoms: C82_82  and  C83_83
REMARK   40  A    between atoms: C82_82  and  C84_84
REMARK                            x       y       z     vdW  Elec       q    Type
REMARK                         _______ _______ _______ _____ _____    ______ ____
ROOT
ATOM      1  C1  UNK     0      -1.871 -39.833  -6.352  0.00  0.00    +0.000 C 
ATOM      2  C2  UNK     0      -2.631 -38.484  -6.493  0.00  0.00    +0.000 C 
ATOM      3  N3  UNK     0      -2.541 -40.562  -5.286  0.00  0.00    +0.000 N 
ATOM      4  C4  UNK     0      -2.536 -41.932  -5.185  0.00  0.00    +0.000 C 
ATOM      5  O5  UNK     0      -2.040 -42.664  -6.041  0.00  0.00    +0.000 OA
ATOM      6  C6  UNK     0      -2.073 -37.373  -5.972  0.00  0.00    +0.000 C 
ATOM      7  N7  UNK     0      -3.906 -38.489  -7.141  0.00  0.00    +0.000 N 
ATOM      8  C8  UNK     0      -4.436 -39.718  -7.763  0.00  0.00    +0.000 C 
ATOM      9  C9  UNK     0      -4.791 -37.269  -7.214  0.00  0.00    +0.000 C 
ATOM     10  C10 UNK     0      -5.649 -37.114  -5.907  0.00  0.00    +0.000 C 
ATOM     11  N11 UNK     0      -5.940 -35.799  -5.428  0.00  0.00    +0.000 N 
ATOM     12  C12 UNK     0      -6.280 -35.513  -3.996  0.00  0.00    +0.000 C 
ATOM     13  C13 UNK     0      -7.789 -35.130  -3.838  0.00  0.00    +0.000 C 
ATOM     14  N14 UNK     0      -8.145 -34.313  -2.732  0.00  0.00    +0.000 N 
ATOM     15  C19 UNK     0      -6.077 -38.216  -5.256  0.00  0.00    +0.000 C 
ATOM     16  C20 UNK     0      -5.826 -34.611  -6.286  0.00  0.00    +0.000 C 
ATOM     17  C22 UNK     0      -8.717 -35.499  -4.743  0.00  0.00    +0.000 C 
ATOM     18  C23 UNK     0      -8.474 -32.913  -3.140  0.00  0.00    +0.000 C 
ATOM     19  C24 UNK     0      -9.103 -34.846  -1.658  0.00  0.00    +0.000 C 
ATOM     20  C26 UNK     0      -9.163 -33.805  -0.439  0.00  0.00    +0.000 C 
ATOM     21  N28 UNK     0      -9.900 -34.295   0.728  0.00  0.00    +0.000 NA
ATOM     22  C29 UNK     0     -11.342 -34.077   0.565  0.00  0.00    +0.000 C 
ATOM     23  C32 UNK     0      -9.397 -33.821   2.058  0.00  0.00    +0.000 C 
ATOM     24  C33 UNK     0      -9.962 -34.822   3.102  0.00  0.00    +0.000 C 
ATOM     25  O42 UNK     0     -10.762 -34.527   3.983  0.00  0.00    +0.000 OA
ATOM     26  N43 UNK     0      -9.486 -36.103   2.887  0.00  0.00    +0.000 N 
ATOM     27  C44 UNK     0      -9.845 -37.238   3.712  0.00  0.00    +0.000 C 
ATOM     28  C47 UNK     0      -9.029 -37.183   5.027  0.00  0.00    +0.000 C 
ATOM     29  C48 UNK     0      -9.758 -37.123   6.161  0.00  0.00    +0.000 C 
ATOM     30  N49 UNK     0      -7.609 -37.184   5.052  0.00  0.00    +0.000 N 
ATOM     31  C50 UNK     0      -6.716 -37.152   3.861  0.00  0.00    +0.000 C 
ATOM     32  C51 UNK     0      -5.805 -38.392   3.800  0.00  0.00    +0.000 C 
ATOM     33  N52 UNK     0      -6.340 -39.503   4.417  0.00  0.00    +0.000 N 
ATOM     34  C53 UNK     0      -5.770 -40.831   4.243  0.00  0.00    +0.000 C 
ATOM     35  C54 UNK     0      -6.198 -41.366   2.851  0.00  0.00    +0.000 C 
ATOM     36  N55 UNK     0      -5.397 -42.386   2.375  0.00  0.00    +0.000 N 
ATOM     37  O56 UNK     0      -4.725 -38.405   3.216  0.00  0.00    +0.000 OA
ATOM     38  O60 UNK     0      -7.191 -40.951   2.260  0.00  0.00    +0.000 OA
ATOM     39  C61 UNK     0      -5.514 -42.960   1.026  0.00  0.00    +0.000 C 
ATOM     40  C65 UNK     0      -4.820 -41.979   0.036  0.00  0.00    +0.000 C 
ATOM     41  N66 UNK     0      -3.441 -41.744   0.206  0.00  0.00    +0.000 N 
ATOM     42  C67 UNK     0      -2.827 -40.729  -0.702  0.00  0.00    +0.000 C 
ATOM     43  C68 UNK     0      -2.549 -42.771   0.744  0.00  0.00    +0.000 C 
ATOM     44  O69 UNK     0      -5.437 -41.433  -0.885  0.00  0.00    +0.000 OA
ATOM     45  C70 UNK     0      -2.455 -41.457  -2.016  0.00  0.00    +0.000 C 
ATOM     46  N71 UNK     0      -3.507 -41.566  -2.907  0.00  0.00    +0.000 N 
ATOM     47  O72 UNK     0      -1.363 -41.987  -2.205  0.00  0.00    +0.000 OA
ATOM     48  C73 UNK     0      -3.414 -42.486  -4.044  0.00  0.00    +0.000 C 
ATOM     49  C74 UNK     0      -4.807 -42.759  -4.603  0.00  0.00    +0.000 C 
ATOM     50  C77 UNK     0      -6.871 -36.923   6.304  0.00  0.00    +0.000 C 
ATOM     51  C78 UNK     0      -0.364 -39.764  -6.077  0.00  0.00    +0.000 C 
ATOM     52  H2  UNK     0      -2.992 -40.029  -4.553  0.00  0.00    +0.000 HD
ATOM     53  H58 UNK     0      -9.067 -36.268   1.981  0.00  0.00    +0.000 HD
ATOM     54  H69 UNK     0      -7.325 -39.411   4.656  0.00  0.00    +0.000 HD
ATOM     55  H71 UNK     0      -4.484 -42.453   2.804  0.00  0.00    +0.000 HD
ATOM     56  H90 UNK     0      -4.431 -41.410  -2.499  0.00  0.00    +0.000 HD
ENDROOT
BRANCH  39  57
ATOM     57  C62 UNK     0      -6.945 -43.382   0.599  0.00  0.00    +0.000 C 
ATOM     58  C63 UNK     0      -6.920 -44.096  -0.762  0.00  0.00    +0.000 C 
ATOM     59  C64 UNK     0      -7.591 -44.328   1.621  0.00  0.00    +0.000 C 
ENDBRANCH  39  57
BRANCH  19  60
ATOM     60  C25 UNK     0      -8.761 -36.286  -1.121  0.00  0.00    +0.000 C 
ATOM     61  C30 UNK     0      -9.377 -37.435  -1.924  0.00  0.00    +0.000 C 
ATOM     62  C31 UNK     0      -7.280 -36.557  -0.843  0.00  0.00    +0.000 C 
ENDBRANCH  19  60
BRANCH  20  63
ATOM     63  O27 UNK     0      -7.828 -33.416  -0.090  0.00  0.00    +0.000 OA
ATOM     64  H34 UNK     0      -7.842 -32.437  -0.149  0.00  0.00    +0.000 HD
ENDBRANCH  20  63
BRANCH  27  65
ATOM     65  C45 UNK     0      -9.723 -38.559   2.933  0.00  0.00    +0.000 C 
ATOM     66  C46 UNK     0      -9.387 -38.362   1.461  0.00  0.00    +0.000 C 
ENDBRANCH  27  65
BRANCH  23  67
ATOM     67  C34 UNK     0      -9.669 -32.337   2.457  0.00  0.00    +0.000 C 
BRANCH  67  68
ATOM     68  C35 UNK     0      -8.793 -31.796   3.630  0.00  0.00    +0.000 C 
ATOM     69  C41 UNK     0      -8.078 -32.879   4.442  0.00  0.00    +0.000 C 
BRANCH  68  70
ATOM     70  C36 UNK     0      -9.667 -30.910   4.558  0.00  0.00    +0.000 C 
BRANCH  70  71
ATOM     71  C37 UNK     0      -8.892 -30.246   5.665  0.00  0.00    +0.000 C 
ATOM     72  C38 UNK     0      -9.230 -29.071   6.216  0.00  0.00    +0.000 C 
ATOM     73  C39 UNK     0      -8.459 -28.405   7.307  0.00  0.00    +0.000 C 
ENDBRANCH  70  71
ENDBRANCH  68  70
ENDBRANCH  67  68
BRANCH  67  74
ATOM     74  O40 UNK     0      -9.396 -31.474   1.330  0.00  0.00    +0.000 OA
ATOM     75  H54 UNK     0      -8.608 -31.856   0.893  0.00  0.00    +0.000 HD
ENDBRANCH  67  74
ENDBRANCH  23  67
BRANCH  34  76
ATOM     76  C57 UNK     0      -6.267 -41.742   5.377  0.00  0.00    +0.000 C 
BRANCH  76  77
ATOM     77  C58 UNK     0      -7.202 -42.898   4.971  0.00  0.00    +0.000 C 
ATOM     78  C59 UNK     0      -6.693 -44.260   5.445  0.00  0.00    +0.000 C 
ATOM     79  C76 UNK     0      -8.603 -42.649   5.541  0.00  0.00    +0.000 C 
ENDBRANCH  76  77
ENDBRANCH  34  76
BRANCH  12  80
ATOM     80  C21 UNK     0      -5.317 -34.456  -3.381  0.00  0.00    +0.000 C 
BRANCH  80  81
ATOM     81  C82 UNK     0      -3.938 -34.986  -2.940  0.00  0.00    +0.000 C 
ATOM     82  C83 UNK     0      -2.845 -34.693  -3.965  0.00  0.00    +0.000 C 
ATOM     83  C84 UNK     0      -4.021 -36.496  -2.697  0.00  0.00    +0.000 C 
ENDBRANCH  80  81
ENDBRANCH  12  80
BRANCH  42  84
ATOM     84  C75 UNK     0      -1.621 -40.022  -0.049  0.00  0.00    +0.000 C 
BRANCH  84  85
ATOM     85  C79 UNK     0      -1.354 -38.595  -0.572  0.00  0.00    +0.000 C 
ATOM     86  C80 UNK     0      -0.208 -38.532  -1.582  0.00  0.00    +0.000 C 
ATOM     87  C81 UNK     0      -1.046 -37.665   0.605  0.00  0.00    +0.000 C 
ENDBRANCH  84  85
ENDBRANCH  42  84
BRANCH   9  88
ATOM     88  C15 UNK     0      -5.653 -37.170  -8.506  0.00  0.00    +0.000 C 
BRANCH  88  89
ATOM     89  C16 UNK     0      -4.884 -36.611  -9.727  0.00  0.00    +0.000 C 
ATOM     90  C17 UNK     0      -5.256 -37.302 -11.037  0.00  0.00    +0.000 C 
ATOM     91  C18 UNK     0      -5.134 -35.106  -9.851  0.00  0.00    +0.000 C 
ENDBRANCH  88  89
ENDBRANCH   9  88
TORSDOF 17
ENDMDL
MODEL 2
REMARK VINA RESULT:      -5.5      2.344      4.324
REMARK  Name = CyclosporineA.pdb
REMARK  40 active torsions:
REMARK  status: ('A' for Active; 'I' for Inactive)
REMARK    1  A    between atoms: C1_1  and  C78_78
REMARK    2  A    between atoms: N7_7  and  C8_8
REMARK    3  A    between atoms: C9_9  and  C15_15
REMARK    4  A    between atoms: N11_11  and  C20_20
REMARK    5  A    between atoms: C12_12  and  C21_21
REMARK    6  A    between atoms: N14_14  and  C23_23
REMARK    7  A    between atoms: C15_15  and  C16_16
REMARK    8  A    between atoms: C16_16  and  C17_17
REMARK    9  A    between atoms: C16_16  and  C18_18
REMARK   10  A    between atoms: C21_21  and  C82_82
REMARK   11  A    between atoms: C24_24  and  C25_25
REMARK   12  A    between atoms: C25_25  and  C30_30
REMARK   13  A    between atoms: C25_25  and  C31_31
REMARK   14  A    between atoms: C26_26  and  O27_27
REMARK   15  A    between atoms: N28_28  and  C29_29
REMARK   16  A    between atoms: C32_32  and  C34_34
REMARK   17  A    between atoms: C34_34  and  C35_35
REMARK   18  A    between atoms: C34_34  and  O40_40
REMARK   19  A    between atoms: C35_35  and  C36_36
REMARK   20  A    between atoms: C35_35  and  C41_41
REMARK   21  A    between atoms: C36_36  and  C37_37
REMARK   22  A    between atoms: C38_38  and  C39_39
REMARK   23  A    between atoms: C44_44  and  C45_45
REMARK   24  A    between atoms: C45_45  and  C46_46
REMARK   25  A    between atoms: N49_49  and  C77_77
REMARK   26  A    between atoms: C53_53  and  C57_57
REMARK   27  A    between atoms: C57_57  and  C58_58
REMARK   28  A    between atoms: C58_58  and  C59_59
REMARK   29  A    between atoms: C58_58  and  C76_76
REMARK   30  A    between atoms: C61_61  and  C62_62
REMARK   31  A    between atoms: C62_62  and  C63_63
REMARK   32  A    between atoms: C62_62  and  C64_64
REMARK   33  A    between atoms: N66_66  and  C68_68
REMARK   34  A    between atoms: C67_67  and  C75_75
REMARK   35  A    between atoms: C73_73  and  C74_74
REMARK   36  A    between atoms: C75_75  and  C79_79
REMARK   37  A    between atoms: C79_79  and  C80_80
REMARK   38  A    between atoms: C79_79  and  C81_81
REMARK   39  A    between atoms: C82_82  and  C83_83
REMARK   40  A    between atoms: C82_82  and  C84_84
REMARK                            x       y       z     vdW  Elec       q    Type
REMARK                         _______ _______ _______ _____ _____    ______ ____
ROOT
ATOM      1  C1  UNK     0      -0.081 -43.845  -2.744  0.00  0.00    +0.000 C 
ATOM      2  C2  UNK     0      -0.341 -42.709  -3.771  0.00  0.00    +0.000 C 
ATOM      3  N3  UNK     0      -1.290 -43.947  -1.942  0.00  0.00    +0.000 N 
ATOM      4  C4  UNK     0      -1.680 -45.098  -1.300  0.00  0.00    +0.000 C 
ATOM      5  O5  UNK     0      -1.085 -46.166  -1.424  0.00  0.00    +0.000 OA
ATOM      6  C6  UNK     0       0.221 -41.502  -3.555  0.00  0.00    +0.000 C 
ATOM      7  N7  UNK     0      -1.194 -42.985  -4.886  0.00  0.00    +0.000 N 
ATOM      8  C8  UNK     0      -1.722 -44.343  -5.120  0.00  0.00    +0.000 C 
ATOM      9  C9  UNK     0      -1.626 -41.923  -5.868  0.00  0.00    +0.000 C 
ATOM     10  C10 UNK     0      -2.870 -41.129  -5.333  0.00  0.00    +0.000 C 
ATOM     11  N11 UNK     0      -2.982 -39.738  -5.641  0.00  0.00    +0.000 N 
ATOM     12  C12 UNK     0      -3.792 -38.785  -4.812  0.00  0.00    +0.000 C 
ATOM     13  C13 UNK     0      -5.078 -38.324  -5.574  0.00  0.00    +0.000 C 
ATOM     14  N14 UNK     0      -5.632 -37.064  -5.223  0.00  0.00    +0.000 N 
ATOM     15  C19 UNK     0      -3.795 -41.765  -4.584  0.00  0.00    +0.000 C 
ATOM     16  C20 UNK     0      -2.226 -39.116  -6.737  0.00  0.00    +0.000 C 
ATOM     17  C22 UNK     0      -5.617 -39.054  -6.571  0.00  0.00    +0.000 C 
ATOM     18  C23 UNK     0      -5.392 -36.026  -6.271  0.00  0.00    +0.000 C 
ATOM     19  C24 UNK     0      -7.046 -36.981  -4.634  0.00  0.00    +0.000 C 
ATOM     20  C26 UNK     0      -7.328 -35.480  -4.146  0.00  0.00    +0.000 C 
ATOM     21  N28 UNK     0      -8.577 -35.321  -3.396  0.00  0.00    +0.000 NA
ATOM     22  C29 UNK     0      -9.717 -35.162  -4.306  0.00  0.00    +0.000 C 
ATOM     23  C32 UNK     0      -8.557 -34.280  -2.317  0.00  0.00    +0.000 C 
ATOM     24  C33 UNK     0      -9.737 -34.634  -1.371  0.00  0.00    +0.000 C 
ATOM     25  O42 UNK     0     -10.720 -33.924  -1.194  0.00  0.00    +0.000 OA
ATOM     26  N43 UNK     0      -9.561 -35.874  -0.784  0.00  0.00    +0.000 N 
ATOM     27  C44 UNK     0     -10.505 -36.457   0.148  0.00  0.00    +0.000 C 
ATOM     28  C47 UNK     0     -10.314 -35.801   1.537  0.00  0.00    +0.000 C 
ATOM     29  C48 UNK     0     -11.400 -35.177   2.039  0.00  0.00    +0.000 C 
ATOM     30  N49 UNK     0      -9.081 -35.835   2.241  0.00  0.00    +0.000 N 
ATOM     31  C50 UNK     0      -7.803 -36.411   1.735  0.00  0.00    +0.000 C 
ATOM     32  C51 UNK     0      -7.301 -37.556   2.635  0.00  0.00    +0.000 C 
ATOM     33  N52 UNK     0      -8.308 -38.212   3.310  0.00  0.00    +0.000 N 
ATOM     34  C53 UNK     0      -8.079 -39.477   3.994  0.00  0.00    +0.000 C 
ATOM     35  C54 UNK     0      -8.023 -40.603   2.929  0.00  0.00    +0.000 C 
ATOM     36  N55 UNK     0      -7.390 -41.752   3.364  0.00  0.00    +0.000 N 
ATOM     37  O56 UNK     0      -6.119 -37.884   2.709  0.00  0.00    +0.000 OA
ATOM     38  O60 UNK     0      -8.545 -40.494   1.823  0.00  0.00    +0.000 OA
ATOM     39  C61 UNK     0      -7.090 -42.902   2.498  0.00  0.00    +0.000 C 
ATOM     40  C65 UNK     0      -5.825 -42.543   1.663  0.00  0.00    +0.000 C 
ATOM     41  N66 UNK     0      -4.626 -42.300   2.363  0.00  0.00    +0.000 N 
ATOM     42  C67 UNK     0      -3.457 -41.870   1.540  0.00  0.00    +0.000 C 
ATOM     43  C68 UNK     0      -4.329 -42.968   3.630  0.00  0.00    +0.000 C 
ATOM     44  O69 UNK     0      -5.849 -42.491   0.429  0.00  0.00    +0.000 OA
ATOM     45  C70 UNK     0      -2.781 -43.154   1.000  0.00  0.00    +0.000 C 
ATOM     46  N71 UNK     0      -3.367 -43.646  -0.153  0.00  0.00    +0.000 N 
ATOM     47  O72 UNK     0      -1.884 -43.744   1.596  0.00  0.00    +0.000 OA
ATOM     48  C73 UNK     0      -3.059 -45.003  -0.612  0.00  0.00    +0.000 C 
ATOM     49  C74 UNK     0      -4.120 -45.467  -1.604  0.00  0.00    +0.000 C 
ATOM     50  C77 UNK     0      -8.879 -35.026   3.459  0.00  0.00    +0.000 C 
ATOM     51  C78 UNK     0       1.145 -43.701  -1.833  0.00  0.00    +0.000 C 
ATOM     52  H2  UNK     0      -1.848 -43.112  -1.810  0.00  0.00    +0.000 HD
ATOM     53  H58 UNK     0      -8.867 -36.470  -1.216  0.00  0.00    +0.000 HD
ATOM     54  H69 UNK     0      -9.244 -37.984   2.984  0.00  0.00    +0.000 HD
ATOM     55  H71 UNK     0      -6.783 -41.633   4.163  0.00  0.00    +0.000 HD
ATOM     56  H90 UNK     0      -4.302 -43.282  -0.346  0.00  0.00    +0.000 HD
ENDROOT
BRANCH  39  57
ATOM     57  C62 UNK     0      -8.277 -43.431   1.650  0.00  0.00    +0.000 C 
ATOM     58  C63 UNK     0      -7.891 -44.726   0.918  0.00  0.00    +0.000 C 
ATOM     59  C64 UNK     0      -9.511 -43.723   2.516  0.00  0.00    +0.000 C 
ENDBRANCH  39  57
BRANCH  19  60
ATOM     60  C25 UNK     0      -7.337 -37.993  -3.463  0.00  0.00    +0.000 C 
ATOM     61  C30 UNK     0      -7.893 -39.348  -3.908  0.00  0.00    +0.000 C 
ATOM     62  C31 UNK     0      -6.203 -38.183  -2.452  0.00  0.00    +0.000 C 
ENDBRANCH  19  60
BRANCH  20  63
ATOM     63  O27 UNK     0      -6.202 -35.014  -3.392  0.00  0.00    +0.000 OA
ATOM     64  H34 UNK     0      -6.159 -34.056  -3.594  0.00  0.00    +0.000 HD
ENDBRANCH  20  63
BRANCH  27  65
ATOM     65  C45 UNK     0     -10.421 -37.994   0.144  0.00  0.00    +0.000 C 
ATOM     66  C46 UNK     0     -11.429 -38.655   1.074  0.00  0.00    +0.000 C 
ENDBRANCH  27  65
BRANCH  23  67
ATOM     67  C34 UNK     0      -8.576 -32.780  -2.747  0.00  0.00    +0.000 C 
BRANCH  67  68
ATOM     68  C35 UNK     0      -8.026 -31.780  -1.683  0.00  0.00    +0.000 C 
ATOM     69  C41 UNK     0      -6.953 -32.361  -0.758  0.00  0.00    +0.000 C 
BRANCH  68  70
ATOM     70  C36 UNK     0      -9.209 -31.212  -0.853  0.00  0.00    +0.000 C 
BRANCH  70  71
ATOM     71  C37 UNK     0      -8.961 -31.217   0.633  0.00  0.00    +0.000 C 
ATOM     72  C38 UNK     0      -9.920 -31.409   1.551  0.00  0.00    +0.000 C 
ATOM     73  C39 UNK     0      -9.680 -31.405   3.025  0.00  0.00    +0.000 C 
ENDBRANCH  70  71
ENDBRANCH  68  70
ENDBRANCH  67  68
BRANCH  67  74
ATOM     74  O40 UNK     0      -7.750 -32.601  -3.921  0.00  0.00    +0.000 OA
ATOM     75  H54 UNK     0      -7.503 -31.654  -3.923  0.00  0.00    +0.000 HD
ENDBRANCH  67  74
ENDBRANCH  23  67
BRANCH  34  76
ATOM     76  C57 UNK     0      -9.212 -39.711   5.006  0.00  0.00    +0.000 C 
BRANCH  76  77
ATOM     77  C58 UNK     0      -8.814 -39.722   6.495  0.00  0.00    +0.000 C 
ATOM     78  C59 UNK     0      -8.777 -38.319   7.104  0.00  0.00    +0.000 C 
ATOM     79  C76 UNK     0      -9.798 -40.595   7.282  0.00  0.00    +0.000 C 
ENDBRANCH  76  77
ENDBRANCH  34  76
BRANCH  12  80
ATOM     80  C21 UNK     0      -2.927 -37.593  -4.305  0.00  0.00    +0.000 C 
BRANCH  80  81
ATOM     81  C82 UNK     0      -2.454 -37.688  -2.841  0.00  0.00    +0.000 C 
ATOM     82  C83 UNK     0      -2.590 -36.362  -2.096  0.00  0.00    +0.000 C 
ATOM     83  C84 UNK     0      -0.995 -38.152  -2.800  0.00  0.00    +0.000 C 
ENDBRANCH  80  81
ENDBRANCH  12  80
BRANCH  42  84
ATOM     84  C75 UNK     0      -2.485 -40.975   2.337  0.00  0.00    +0.000 C 
BRANCH  84  85
ATOM     85  C79 UNK     0      -2.182 -39.613   1.678  0.00  0.00    +0.000 C 
ATOM     86  C80 UNK     0      -3.355 -39.066   0.865  0.00  0.00    +0.000 C 
ATOM     87  C81 UNK     0      -0.953 -39.743   0.773  0.00  0.00    +0.000 C 
ENDBRANCH  84  85
ENDBRANCH  42  84
BRANCH   9  88
ATOM     88  C15 UNK     0      -1.827 -42.433  -7.325  0.00  0.00    +0.000 C 
BRANCH  88  89
ATOM     89  C16 UNK     0      -3.305 -42.439  -7.785  0.00  0.00    +0.000 C 
ATOM     90  C17 UNK     0      -3.549 -41.590  -9.031  0.00  0.00    +0.000 C 
ATOM     91  C18 UNK     0      -3.760 -43.878  -8.046  0.00  0.00    +0.000 C 
ENDBRANCH  88  89
ENDBRANCH   9  88
TORSDOF 17
ENDMDL
MODEL 3
REMARK VINA RESULT:      -5.3      3.806     10.791
REMARK  Name = CyclosporineA.pdb
REMARK  40 active torsions:
REMARK  status: ('A' for Active; 'I' for Inactive)
REMARK    1  A    between atoms: C1_1  and  C78_78
REMARK    2  A    between atoms: N7_7  and  C8_8
REMARK    3  A    between atoms: C9_9  and  C15_15
REMARK    4  A    between atoms: N11_11  and  C20_20
REMARK    5  A    between atoms: C12_12  and  C21_21
REMARK    6  A    between atoms: N14_14  and  C23_23
REMARK    7  A    between atoms: C15_15  and  C16_16
REMARK    8  A    between atoms: C16_16  and  C17_17
REMARK    9  A    between atoms: C16_16  and  C18_18
REMARK   10  A    between atoms: C21_21  and  C82_82
REMARK   11  A    between atoms: C24_24  and  C25_25
REMARK   12  A    between atoms: C25_25  and  C30_30
REMARK   13  A    between atoms: C25_25  and  C31_31
REMARK   14  A    between atoms: C26_26  and  O27_27
REMARK   15  A    between atoms: N28_28  and  C29_29
REMARK   16  A    between atoms: C32_32  and  C34_34
REMARK   17  A    between atoms: C34_34  and  C35_35
REMARK   18  A    between atoms: C34_34  and  O40_40
REMARK   19  A    between atoms: C35_35  and  C36_36
REMARK   20  A    between atoms: C35_35  and  C41_41
REMARK   21  A    between atoms: C36_36  and  C37_37
REMARK   22  A    between atoms: C38_38  and  C39_39
REMARK   23  A    between atoms: C44_44  and  C45_45
REMARK   24  A    between atoms: C45_45  and  C46_46
REMARK   25  A    between atoms: N49_49  and  C77_77
REMARK   26  A    between atoms: C53_53  and  C57_57
REMARK   27  A    between atoms: C57_57  and  C58_58
REMARK   28  A    between atoms: C58_58  and  C59_59
REMARK   29  A    between atoms: C58_58  and  C76_76
REMARK   30  A    between atoms: C61_61  and  C62_62
REMARK   31  A    between atoms: C62_62  and  C63_63
REMARK   32  A    between atoms: C62_62  and  C64_64
REMARK   33  A    between atoms: N66_66  and  C68_68
REMARK   34  A    between atoms: C67_67  and  C75_75
REMARK   35  A    between atoms: C73_73  and  C74_74
REMARK   36  A    between atoms: C75_75  and  C79_79
REMARK   37  A    between atoms: C79_79  and  C80_80
REMARK   38  A    between atoms: C79_79  and  C81_81
REMARK   39  A    between atoms: C82_82  and  C83_83
REMARK   40  A    between atoms: C82_82  and  C84_84
REMARK                            x       y       z     vdW  Elec       q    Type
REMARK                         _______ _______ _______ _____ _____    ______ ____
ROOT
ATOM      1  C1  UNK     0      -0.060 -44.753   0.941  0.00  0.00    +0.000 C 
ATOM      2  C2  UNK     0       0.619 -44.760  -0.457  0.00  0.00    +0.000 C 
ATOM      3  N3  UNK     0      -1.328 -44.062   0.768  0.00  0.00    +0.000 N 
ATOM      4  C4  UNK     0      -2.423 -44.273   1.573  0.00  0.00    +0.000 C 
ATOM      5  O5  UNK     0      -2.451 -45.132   2.451  0.00  0.00    +0.000 OA
ATOM      6  C6  UNK     0       1.622 -43.889  -0.690  0.00  0.00    +0.000 C 
ATOM      7  N7  UNK     0       0.127 -45.669  -1.445  0.00  0.00    +0.000 N 
ATOM      8  C8  UNK     0      -0.919 -46.655  -1.115  0.00  0.00    +0.000 C 
ATOM      9  C9  UNK     0       0.616 -45.668  -2.873  0.00  0.00    +0.000 C 
ATOM     10  C10 UNK     0      -0.143 -44.595  -3.731  0.00  0.00    +0.000 C 
ATOM     11  N11 UNK     0       0.569 -43.913  -4.767  0.00  0.00    +0.000 N 
ATOM     12  C12 UNK     0       0.153 -42.571  -5.291  0.00  0.00    +0.000 C 
ATOM     13  C13 UNK     0      -0.420 -42.684  -6.743  0.00  0.00    +0.000 C 
ATOM     14  N14 UNK     0      -0.329 -41.536  -7.575  0.00  0.00    +0.000 N 
ATOM     15  C19 UNK     0      -1.438 -44.324  -3.466  0.00  0.00    +0.000 C 
ATOM     16  C20 UNK     0       1.826 -44.433  -5.325  0.00  0.00    +0.000 C 
ATOM     17  C22 UNK     0      -0.925 -43.838  -7.223  0.00  0.00    +0.000 C 
ATOM     18  C23 UNK     0       0.709 -41.684  -8.639  0.00  0.00    +0.000 C 
ATOM     19  C24 UNK     0      -1.604 -40.859  -8.095  0.00  0.00    +0.000 C 
ATOM     20  C26 UNK     0      -1.214 -39.486  -8.826  0.00  0.00    +0.000 C 
ATOM     21  N28 UNK     0      -2.365 -38.661  -9.199  0.00  0.00    +0.000 NA
ATOM     22  C29 UNK     0      -2.928 -39.098 -10.481  0.00  0.00    +0.000 C 
ATOM     23  C32 UNK     0      -2.144 -37.179  -9.148  0.00  0.00    +0.000 C 
ATOM     24  C33 UNK     0      -3.560 -36.545  -9.075  0.00  0.00    +0.000 C 
ATOM     25  O42 UNK     0      -4.044 -35.829  -9.945  0.00  0.00    +0.000 OA
ATOM     26  N43 UNK     0      -4.227 -36.927  -7.926  0.00  0.00    +0.000 N 
ATOM     27  C44 UNK     0      -5.566 -36.482  -7.595  0.00  0.00    +0.000 C 
ATOM     28  C47 UNK     0      -5.496 -35.037  -7.045  0.00  0.00    +0.000 C 
ATOM     29  C48 UNK     0      -6.205 -34.118  -7.734  0.00  0.00    +0.000 C 
ATOM     30  N49 UNK     0      -4.732 -34.685  -5.900  0.00  0.00    +0.000 N 
ATOM     31  C50 UNK     0      -3.844 -35.601  -5.130  0.00  0.00    +0.000 C 
ATOM     32  C51 UNK     0      -4.294 -35.726  -3.662  0.00  0.00    +0.000 C 
ATOM     33  N52 UNK     0      -5.643 -35.514  -3.476  0.00  0.00    +0.000 N 
ATOM     34  C53 UNK     0      -6.310 -35.845  -2.225  0.00  0.00    +0.000 C 
ATOM     35  C54 UNK     0      -6.518 -37.381  -2.176  0.00  0.00    +0.000 C 
ATOM     36  N55 UNK     0      -6.724 -37.876  -0.902  0.00  0.00    +0.000 N 
ATOM     37  O56 UNK     0      -3.531 -36.032  -2.749  0.00  0.00    +0.000 OA
ATOM     38  O60 UNK     0      -6.549 -38.077  -3.187  0.00  0.00    +0.000 OA
ATOM     39  C61 UNK     0      -6.807 -39.309  -0.582  0.00  0.00    +0.000 C 
ATOM     40  C65 UNK     0      -5.354 -39.867  -0.543  0.00  0.00    +0.000 C 
ATOM     41  N66 UNK     0      -4.475 -39.335   0.422  0.00  0.00    +0.000 N 
ATOM     42  C67 UNK     0      -3.065 -39.825   0.373  0.00  0.00    +0.000 C 
ATOM     43  C68 UNK     0      -4.958 -38.850   1.715  0.00  0.00    +0.000 C 
ATOM     44  O69 UNK     0      -4.974 -40.759  -1.309  0.00  0.00    +0.000 OA
ATOM     45  C70 UNK     0      -3.012 -41.147   1.177  0.00  0.00    +0.000 C 
ATOM     46  N71 UNK     0      -3.387 -42.258   0.443  0.00  0.00    +0.000 N 
ATOM     47  O72 UNK     0      -2.770 -41.193   2.380  0.00  0.00    +0.000 OA
ATOM     48  C73 UNK     0      -3.692 -43.519   1.124  0.00  0.00    +0.000 C 
ATOM     49  C74 UNK     0      -4.485 -44.431   0.193  0.00  0.00    +0.000 C 
ATOM     50  C77 UNK     0      -4.525 -33.271  -5.530  0.00  0.00    +0.000 C 
ATOM     51  C78 UNK     0       0.726 -44.130   2.101  0.00  0.00    +0.000 C 
ATOM     52  H2  UNK     0      -1.392 -43.353   0.049  0.00  0.00    +0.000 HD
ATOM     53  H58 UNK     0      -3.842 -37.725  -7.439  0.00  0.00    +0.000 HD
ATOM     54  H69 UNK     0      -6.183 -35.494  -4.338  0.00  0.00    +0.000 HD
ATOM     55  H71 UNK     0      -6.416 -37.275  -0.152  0.00  0.00    +0.000 HD
ATOM     56  H90 UNK     0      -3.898 -42.049  -0.418  0.00  0.00    +0.000 HD
ENDROOT
BRANCH  39  57
ATOM     57  C62 UNK     0      -7.779 -40.138  -1.464  0.00  0.00    +0.000 C 
ATOM     58  C63 UNK     0      -7.906 -41.575  -0.934  0.00  0.00    +0.000 C 
ATOM     59  C64 UNK     0      -9.183 -39.519  -1.505  0.00  0.00    +0.000 C 
ENDBRANCH  39  57
BRANCH  19  60
ATOM     60  C25 UNK     0      -2.707 -40.595  -7.003  0.00  0.00    +0.000 C 
ATOM     61  C30 UNK     0      -3.685 -41.752  -6.783  0.00  0.00    +0.000 C 
ATOM     62  C31 UNK     0      -2.200 -40.058  -5.662  0.00  0.00    +0.000 C 
ENDBRANCH  19  60
BRANCH  20  63
ATOM     63  O27 UNK     0      -0.295 -38.761  -7.998  0.00  0.00    +0.000 OA
ATOM     64  H34 UNK     0      -0.587 -38.962  -7.084  0.00  0.00    +0.000 HD
ENDBRANCH  20  63
BRANCH  27  65
ATOM     65  C45 UNK     0      -6.280 -37.488  -6.676  0.00  0.00    +0.000 C 
ATOM     66  C46 UNK     0      -7.632 -37.940  -7.211  0.00  0.00    +0.000 C 
ENDBRANCH  27  65
BRANCH  23  67
ATOM     67  C34 UNK     0      -1.265 -36.531 -10.263  0.00  0.00    +0.000 C 
BRANCH  67  68
ATOM     68  C35 UNK     0      -0.575 -35.189  -9.866  0.00  0.00    +0.000 C 
ATOM     69  C41 UNK     0      -1.223 -33.938 -10.466  0.00  0.00    +0.000 C 
BRANCH  68  70
ATOM     70  C36 UNK     0       0.930 -35.254 -10.242  0.00  0.00    +0.000 C 
BRANCH  70  71
ATOM     71  C37 UNK     0       1.520 -33.916 -10.605  0.00  0.00    +0.000 C 
ATOM     72  C38 UNK     0       2.836 -33.657 -10.617  0.00  0.00    +0.000 C 
ATOM     73  C39 UNK     0       3.423 -32.329 -10.968  0.00  0.00    +0.000 C 
ENDBRANCH  70  71
ENDBRANCH  68  70
ENDBRANCH  67  68
BRANCH  67  74
ATOM     74  O40 UNK     0      -0.194 -37.434 -10.623  0.00  0.00    +0.000 OA
ATOM     75  H54 UNK     0       0.542 -37.221 -10.013  0.00  0.00    +0.000 HD
ENDBRANCH  67  74
ENDBRANCH  23  67
BRANCH  34  76
ATOM     76  C57 UNK     0      -7.648 -35.090  -2.156  0.00  0.00    +0.000 C 
BRANCH  76  77
ATOM     77  C58 UNK     0      -7.779 -34.021  -1.053  0.00  0.00    +0.000 C 
ATOM     78  C59 UNK     0      -7.329 -34.532   0.317  0.00  0.00    +0.000 C 
ATOM     79  C76 UNK     0      -6.954 -32.787  -1.436  0.00  0.00    +0.000 C 
ENDBRANCH  76  77
ENDBRANCH  34  76
BRANCH  12  80
ATOM     80  C21 UNK     0       1.304 -41.530  -5.172  0.00  0.00    +0.000 C 
BRANCH  80  81
ATOM     81  C82 UNK     0       1.077 -40.401  -4.147  0.00  0.00    +0.000 C 
ATOM     82  C83 UNK     0       2.330 -39.556  -3.922  0.00  0.00    +0.000 C 
ATOM     83  C84 UNK     0       0.618 -41.000  -2.814  0.00  0.00    +0.000 C 
ENDBRANCH  80  81
ENDBRANCH  12  80
BRANCH  42  84
ATOM     84  C75 UNK     0      -2.066 -38.770   0.892  0.00  0.00    +0.000 C 
BRANCH  84  85
ATOM     85  C79 UNK     0      -1.740 -37.646  -0.113  0.00  0.00    +0.000 C 
ATOM     86  C80 UNK     0      -0.950 -38.138  -1.326  0.00  0.00    +0.000 C 
ATOM     87  C81 UNK     0      -0.951 -36.539   0.592  0.00  0.00    +0.000 C 
ENDBRANCH  84  85
ENDBRANCH  42  84
BRANCH   9  88
ATOM     88  C15 UNK     0       0.634 -47.069  -3.553  0.00  0.00    +0.000 C 
BRANCH  88  89
ATOM     89  C16 UNK     0       1.841 -47.946  -3.143  0.00  0.00    +0.000 C 
ATOM     90  C17 UNK     0       2.067 -49.130  -4.080  0.00  0.00    +0.000 C 
ATOM     91  C18 UNK     0       3.108 -47.088  -3.085  0.00  0.00    +0.000 C 
ENDBRANCH  88  89
ENDBRANCH   9  88
TORSDOF 17
ENDMDL
MODEL 4
REMARK VINA RESULT:      -5.3      2.586      4.634
REMARK  Name = CyclosporineA.pdb
REMARK  40 active torsions:
REMARK  status: ('A' for Active; 'I' for Inactive)
REMARK    1  A    between atoms: C1_1  and  C78_78
REMARK    2  A    between atoms: N7_7  and  C8_8
REMARK    3  A    between atoms: C9_9  and  C15_15
REMARK    4  A    between atoms: N11_11  and  C20_20
REMARK    5  A    between atoms: C12_12  and  C21_21
REMARK    6  A    between atoms: N14_14  and  C23_23
REMARK    7  A    between atoms: C15_15  and  C16_16
REMARK    8  A    between atoms: C16_16  and  C17_17
REMARK    9  A    between atoms: C16_16  and  C18_18
REMARK   10  A    between atoms: C21_21  and  C82_82
REMARK   11  A    between atoms: C24_24  and  C25_25
REMARK   12  A    between atoms: C25_25  and  C30_30
REMARK   13  A    between atoms: C25_25  and  C31_31
REMARK   14  A    between atoms: C26_26  and  O27_27
REMARK   15  A    between atoms: N28_28  and  C29_29
REMARK   16  A    between atoms: C32_32  and  C34_34
REMARK   17  A    between atoms: C34_34  and  C35_35
REMARK   18  A    between atoms: C34_34  and  O40_40
REMARK   19  A    between atoms: C35_35  and  C36_36
REMARK   20  A    between atoms: C35_35  and  C41_41
REMARK   21  A    between atoms: C36_36  and  C37_37
REMARK   22  A    between atoms: C38_38  and  C39_39
REMARK   23  A    between atoms: C44_44  and  C45_45
REMARK   24  A    between atoms: C45_45  and  C46_46
REMARK   25  A    between atoms: N49_49  and  C77_77
REMARK   26  A    between atoms: C53_53  and  C57_57
REMARK   27  A    between atoms: C57_57  and  C58_58
REMARK   28  A    between atoms: C58_58  and  C59_59
REMARK   29  A    between atoms: C58_58  and  C76_76
REMARK   30  A    between atoms: C61_61  and  C62_62
REMARK   31  A    between atoms: C62_62  and  C63_63
REMARK   32  A    between atoms: C62_62  and  C64_64
REMARK   33  A    between atoms: N66_66  and  C68_68
REMARK   34  A    between atoms: C67_67  and  C75_75
REMARK   35  A    between atoms: C73_73  and  C74_74
REMARK   36  A    between atoms: C75_75  and  C79_79
REMARK   37  A    between atoms: C79_79  and  C80_80
REMARK   38  A    between atoms: C79_79  and  C81_81
REMARK   39  A    between atoms: C82_82  and  C83_83
REMARK   40  A    between atoms: C82_82  and  C84_84
REMARK                            x       y       z     vdW  Elec       q    Type
REMARK                         _______ _______ _______ _____ _____    ______ ____
ROOT
ATOM      1  C1  UNK     0      -0.361 -43.801  -1.298  0.00  0.00    +0.000 C 
ATOM      2  C2  UNK     0      -0.268 -42.363  -1.878  0.00  0.00    +0.000 C 
ATOM      3  N3  UNK     0      -1.778 -44.065  -1.102  0.00  0.00    +0.000 N 
ATOM      4  C4  UNK     0      -2.322 -45.327  -1.104  0.00  0.00    +0.000 C 
ATOM      5  O5  UNK     0      -1.669 -46.336  -1.361  0.00  0.00    +0.000 OA
ATOM      6  C6  UNK     0       0.103 -41.359  -1.056  0.00  0.00    +0.000 C 
ATOM      7  N7  UNK     0      -0.612 -42.162  -3.252  0.00  0.00    +0.000 N 
ATOM      8  C8  UNK     0      -0.936 -43.304  -4.127  0.00  0.00    +0.000 C 
ATOM      9  C9  UNK     0      -0.690 -40.793  -3.883  0.00  0.00    +0.000 C 
ATOM     10  C10 UNK     0      -2.085 -40.125  -3.615  0.00  0.00    +0.000 C 
ATOM     11  N11 UNK     0      -2.145 -38.708  -3.432  0.00  0.00    +0.000 N 
ATOM     12  C12 UNK     0      -3.260 -38.031  -2.692  0.00  0.00    +0.000 C 
ATOM     13  C13 UNK     0      -4.179 -37.224  -3.669  0.00  0.00    +0.000 C 
ATOM     14  N14 UNK     0      -4.891 -36.117  -3.134  0.00  0.00    +0.000 N 
ATOM     15  C19 UNK     0      -3.192 -40.894  -3.545  0.00  0.00    +0.000 C 
ATOM     16  C20 UNK     0      -1.061 -37.816  -3.869  0.00  0.00    +0.000 C 
ATOM     17  C22 UNK     0      -4.254 -37.516  -4.982  0.00  0.00    +0.000 C 
ATOM     18  C23 UNK     0      -4.324 -34.808  -3.577  0.00  0.00    +0.000 C 
ATOM     19  C24 UNK     0      -6.426 -36.117  -3.133  0.00  0.00    +0.000 C 
ATOM     20  C26 UNK     0      -6.954 -34.857  -2.294  0.00  0.00    +0.000 C 
ATOM     21  N28 UNK     0      -8.401 -34.855  -2.066  0.00  0.00    +0.000 NA
ATOM     22  C29 UNK     0      -9.112 -34.293  -3.220  0.00  0.00    +0.000 C 
ATOM     23  C32 UNK     0      -8.852 -34.255  -0.768  0.00  0.00    +0.000 C 
ATOM     24  C33 UNK     0     -10.284 -34.807  -0.526  0.00  0.00    +0.000 C 
ATOM     25  O42 UNK     0     -11.297 -34.117  -0.497  0.00  0.00    +0.000 OA
ATOM     26  N43 UNK     0     -10.281 -36.184  -0.392  0.00  0.00    +0.000 N 
ATOM     27  C44 UNK     0     -11.477 -36.965  -0.154  0.00  0.00    +0.000 C 
ATOM     28  C47 UNK     0     -11.869 -36.847   1.339  0.00  0.00    +0.000 C 
ATOM     29  C48 UNK     0     -13.096 -36.340   1.579  0.00  0.00    +0.000 C 
ATOM     30  N49 UNK     0     -11.000 -37.231   2.395  0.00  0.00    +0.000 N 
ATOM     31  C50 UNK     0      -9.597 -37.708   2.240  0.00  0.00    +0.000 C 
ATOM     32  C51 UNK     0      -9.418 -39.132   2.799  0.00  0.00    +0.000 C 
ATOM     33  N52 UNK     0     -10.570 -39.889   2.768  0.00  0.00    +0.000 N 
ATOM     34  C53 UNK     0     -10.553 -41.327   2.996  0.00  0.00    +0.000 C 
ATOM     35  C54 UNK     0     -10.033 -42.018   1.709  0.00  0.00    +0.000 C 
ATOM     36  N55 UNK     0      -9.554 -43.297   1.917  0.00  0.00    +0.000 N 
ATOM     37  O56 UNK     0      -8.339 -39.569   3.192  0.00  0.00    +0.000 OA
ATOM     38  O60 UNK     0     -10.095 -41.489   0.603  0.00  0.00    +0.000 OA
ATOM     39  C61 UNK     0      -8.884 -44.101   0.884  0.00  0.00    +0.000 C 
ATOM     40  C65 UNK     0      -7.416 -43.591   0.771  0.00  0.00    +0.000 C 
ATOM     41  N66 UNK     0      -6.593 -43.711   1.908  0.00  0.00    +0.000 N 
ATOM     42  C67 UNK     0      -5.222 -43.130   1.794  0.00  0.00    +0.000 C 
ATOM     43  C68 UNK     0      -6.769 -44.798   2.872  0.00  0.00    +0.000 C 
ATOM     44  O69 UNK     0      -6.968 -43.115  -0.278  0.00  0.00    +0.000 OA
ATOM     45  C70 UNK     0      -4.323 -44.203   1.135  0.00  0.00    +0.000 C 
ATOM     46  N71 UNK     0      -4.394 -44.215  -0.246  0.00  0.00    +0.000 N 
ATOM     47  O72 UNK     0      -3.693 -45.040   1.777  0.00  0.00    +0.000 OA
ATOM     48  C73 UNK     0      -3.862 -45.353  -1.000  0.00  0.00    +0.000 C 
ATOM     49  C74 UNK     0      -4.435 -45.351  -2.414  0.00  0.00    +0.000 C 
ATOM     50  C77 UNK     0     -11.324 -36.911   3.800  0.00  0.00    +0.000 C 
ATOM     51  C78 UNK     0       0.412 -44.089  -0.005  0.00  0.00    +0.000 C 
ATOM     52  H2  UNK     0      -2.388 -43.281  -0.906  0.00  0.00    +0.000 HD
ATOM     53  H58 UNK     0      -9.443 -36.654  -0.710  0.00  0.00    +0.000 HD
ATOM     54  H69 UNK     0     -11.320 -39.480   2.215  0.00  0.00    +0.000 HD
ATOM     55  H71 UNK     0      -9.308 -43.515   2.872  0.00  0.00    +0.000 HD
ATOM     56  H90 UNK     0      -5.203 -43.725  -0.636  0.00  0.00    +0.000 HD
ENDROOT
BRANCH  39  57
ATOM     57  C62 UNK     0      -9.625 -44.199  -0.476  0.00  0.00    +0.000 C 
ATOM     58  C63 UNK     0      -8.921 -45.195  -1.411  0.00  0.00    +0.000 C 
ATOM     59  C64 UNK     0     -11.080 -44.656  -0.302  0.00  0.00    +0.000 C 
ENDBRANCH  39  57
BRANCH  19  60
ATOM     60  C25 UNK     0      -7.089 -37.440  -2.595  0.00  0.00    +0.000 C 
ATOM     61  C30 UNK     0      -7.356 -38.505  -3.661  0.00  0.00    +0.000 C 
ATOM     62  C31 UNK     0      -6.423 -38.064  -1.366  0.00  0.00    +0.000 C 
ENDBRANCH  19  60
BRANCH  20  63
ATOM     63  O27 UNK     0      -6.229 -34.780  -1.060  0.00  0.00    +0.000 OA
ATOM     64  H34 UNK     0      -6.120 -33.818  -0.906  0.00  0.00    +0.000 HD
ENDBRANCH  20  63
BRANCH  27  65
ATOM     65  C45 UNK     0     -11.315 -38.408  -0.665  0.00  0.00    +0.000 C 
ATOM     66  C46 UNK     0     -12.620 -39.193  -0.678  0.00  0.00    +0.000 C 
ENDBRANCH  27  65
BRANCH  23  67
ATOM     67  C34 UNK     0      -8.785 -32.704  -0.617  0.00  0.00    +0.000 C 
BRANCH  67  68
ATOM     68  C35 UNK     0      -9.595 -32.120   0.582  0.00  0.00    +0.000 C 
ATOM     69  C41 UNK     0      -9.935 -30.632   0.457  0.00  0.00    +0.000 C 
BRANCH  68  70
ATOM     70  C36 UNK     0      -8.825 -32.392   1.903  0.00  0.00    +0.000 C 
BRANCH  70  71
ATOM     71  C37 UNK     0      -9.198 -31.456   3.023  0.00  0.00    +0.000 C 
ATOM     72  C38 UNK     0      -8.489 -31.322   4.154  0.00  0.00    +0.000 C 
ATOM     73  C39 UNK     0      -8.861 -30.402   5.270  0.00  0.00    +0.000 C 
ENDBRANCH  70  71
ENDBRANCH  68  70
ENDBRANCH  67  68
BRANCH  67  74
ATOM     74  O40 UNK     0      -7.415 -32.295  -0.404  0.00  0.00    +0.000 OA
ATOM     75  H54 UNK     0      -7.006 -33.016   0.118  0.00  0.00    +0.000 HD
ENDBRANCH  67  74
ENDBRANCH  23  67
BRANCH  34  76
ATOM     76  C57 UNK     0     -11.974 -41.793   3.354  0.00  0.00    +0.000 C 
BRANCH  76  77
ATOM     77  C58 UNK     0     -12.223 -42.172   4.827  0.00  0.00    +0.000 C 
ATOM     78  C59 UNK     0     -10.925 -42.378   5.609  0.00  0.00    +0.000 C 
ATOM     79  C76 UNK     0     -13.060 -41.079   5.503  0.00  0.00    +0.000 C 
ENDBRANCH  76  77
ENDBRANCH  34  76
BRANCH  12  80
ATOM     80  C21 UNK     0      -2.721 -37.168  -1.514  0.00  0.00    +0.000 C 
BRANCH  80  81
ATOM     81  C82 UNK     0      -2.753 -37.840  -0.127  0.00  0.00    +0.000 C 
ATOM     82  C83 UNK     0      -3.519 -37.015   0.905  0.00  0.00    +0.000 C 
ATOM     83  C84 UNK     0      -1.321 -38.074   0.365  0.00  0.00    +0.000 C 
ENDBRANCH  80  81
ENDBRANCH  12  80
BRANCH  42  84
ATOM     84  C75 UNK     0      -4.680 -42.653   3.158  0.00  0.00    +0.000 C 
BRANCH  84  85
ATOM     85  C79 UNK     0      -4.046 -41.246   3.140  0.00  0.00    +0.000 C 
ATOM     86  C80 UNK     0      -4.892 -40.218   2.390  0.00  0.00    +0.000 C 
ATOM     87  C81 UNK     0      -2.653 -41.318   2.506  0.00  0.00    +0.000 C 
ENDBRANCH  84  85
ENDBRANCH  42  84
BRANCH   9  88
ATOM     88  C15 UNK     0      -0.290 -40.750  -5.387  0.00  0.00    +0.000 C 
BRANCH  88  89
ATOM     89  C16 UNK     0      -1.461 -40.395  -6.334  0.00  0.00    +0.000 C 
ATOM     90  C17 UNK     0      -1.147 -39.227  -7.265  0.00  0.00    +0.000 C 
ATOM     91  C18 UNK     0      -1.846 -41.624  -7.164  0.00  0.00    +0.000 C 
ENDBRANCH  88  89
ENDBRANCH   9  88
TORSDOF 17
ENDMDL
MODEL 5
REMARK VINA RESULT:      -5.2      3.106     12.120
REMARK  Name = CyclosporineA.pdb
REMARK  40 active torsions:
REMARK  status: ('A' for Active; 'I' for Inactive)
REMARK    1  A    between atoms: C1_1  and  C78_78
REMARK    2  A    between atoms: N7_7  and  C8_8
REMARK    3  A    between atoms: C9_9  and  C15_15
REMARK    4  A    between atoms: N11_11  and  C20_20
REMARK    5  A    between atoms: C12_12  and  C21_21
REMARK    6  A    between atoms: N14_14  and  C23_23
REMARK    7  A    between atoms: C15_15  and  C16_16
REMARK    8  A    between atoms: C16_16  and  C17_17
REMARK    9  A    between atoms: C16_16  and  C18_18
REMARK   10  A    between atoms: C21_21  and  C82_82
REMARK   11  A    between atoms: C24_24  and  C25_25
REMARK   12  A    between atoms: C25_25  and  C30_30
REMARK   13  A    between atoms: C25_25  and  C31_31
REMARK   14  A    between atoms: C26_26  and  O27_27
REMARK   15  A    between atoms: N28_28  and  C29_29
REMARK   16  A    between atoms: C32_32  and  C34_34
REMARK   17  A    between atoms: C34_34  and  C35_35
REMARK   18  A    between atoms: C34_34  and  O40_40
REMARK   19  A    between atoms: C35_35  and  C36_36
REMARK   20  A    between atoms: C35_35  and  C41_41
REMARK   21  A    between atoms: C36_36  and  C37_37
REMARK   22  A    between atoms: C38_38  and  C39_39
REMARK   23  A    between atoms: C44_44  and  C45_45
REMARK   24  A    between atoms: C45_45  and  C46_46
REMARK   25  A    between atoms: N49_49  and  C77_77
REMARK   26  A    between atoms: C53_53  and  C57_57
REMARK   27  A    between atoms: C57_57  and  C58_58
REMARK   28  A    between atoms: C58_58  and  C59_59
REMARK   29  A    between atoms: C58_58  and  C76_76
REMARK   30  A    between atoms: C61_61  and  C62_62
REMARK   31  A    between atoms: C62_62  and  C63_63
REMARK   32  A    between atoms: C62_62  and  C64_64
REMARK   33  A    between atoms: N66_66  and  C68_68
REMARK   34  A    between atoms: C67_67  and  C75_75
REMARK   35  A    between atoms: C73_73  and  C74_74
REMARK   36  A    between atoms: C75_75  and  C79_79
REMARK   37  A    between atoms: C79_79  and  C80_80
REMARK   38  A    between atoms: C79_79  and  C81_81
REMARK   39  A    between atoms: C82_82  and  C83_83
REMARK   40  A    between atoms: C82_82  and  C84_84
REMARK                            x       y       z     vdW  Elec       q    Type
REMARK                         _______ _______ _______ _____ _____    ______ ____
ROOT
ATOM      1  C1  UNK     0      -9.062 -34.866   0.024  0.00  0.00    +0.000 C 
ATOM      2  C2  UNK     0      -8.135 -35.600   1.033  0.00  0.00    +0.000 C 
ATOM      3  N3  UNK     0      -8.912 -35.566  -1.242  0.00  0.00    +0.000 N 
ATOM      4  C4  UNK     0      -9.881 -35.586  -2.217  0.00  0.00    +0.000 C 
ATOM      5  O5  UNK     0     -10.994 -35.089  -2.063  0.00  0.00    +0.000 OA
ATOM      6  C6  UNK     0      -6.955 -35.031   1.355  0.00  0.00    +0.000 C 
ATOM      7  N7  UNK     0      -8.562 -36.864   1.550  0.00  0.00    +0.000 N 
ATOM      8  C8  UNK     0      -9.895 -37.404   1.226  0.00  0.00    +0.000 C 
ATOM      9  C9  UNK     0      -7.686 -37.726   2.426  0.00  0.00    +0.000 C 
ATOM     10  C10 UNK     0      -6.711 -38.603   1.562  0.00  0.00    +0.000 C 
ATOM     11  N11 UNK     0      -5.404 -38.880   2.070  0.00  0.00    +0.000 N 
ATOM     12  C12 UNK     0      -4.248 -39.240   1.184  0.00  0.00    +0.000 C 
ATOM     13  C13 UNK     0      -3.852 -40.744   1.353  0.00  0.00    +0.000 C 
ATOM     14  N14 UNK     0      -2.509 -41.105   1.062  0.00  0.00    +0.000 N 
ATOM     15  C19 UNK     0      -7.115 -39.062   0.359  0.00  0.00    +0.000 C 
ATOM     16  C20 UNK     0      -5.069 -38.731   3.493  0.00  0.00    +0.000 C 
ATOM     17  C22 UNK     0      -4.723 -41.663   1.816  0.00  0.00    +0.000 C 
ATOM     18  C23 UNK     0      -1.720 -41.403   2.296  0.00  0.00    +0.000 C 
ATOM     19  C24 UNK     0      -2.206 -42.090  -0.075  0.00  0.00    +0.000 C 
ATOM     20  C26 UNK     0      -0.621 -42.153  -0.311  0.00  0.00    +0.000 C 
ATOM     21  N28 UNK     0      -0.224 -42.919  -1.494  0.00  0.00    +0.000 NA
ATOM     22  C29 UNK     0      -0.164 -44.353  -1.194  0.00  0.00    +0.000 C 
ATOM     23  C32 UNK     0       1.005 -42.430  -2.200  0.00  0.00    +0.000 C 
ATOM     24  C33 UNK     0       0.935 -43.031  -3.631  0.00  0.00    +0.000 C 
ATOM     25  O42 UNK     0       1.737 -43.840  -4.083  0.00  0.00    +0.000 OA
ATOM     26  N43 UNK     0      -0.174 -42.572  -4.319  0.00  0.00    +0.000 N 
ATOM     27  C44 UNK     0      -0.489 -42.965  -5.677  0.00  0.00    +0.000 C 
ATOM     28  C47 UNK     0       0.413 -42.171  -6.654  0.00  0.00    +0.000 C 
ATOM     29  C48 UNK     0       1.204 -42.919  -7.452  0.00  0.00    +0.000 C 
ATOM     30  N49 UNK     0       0.427 -40.752  -6.708  0.00  0.00    +0.000 N 
ATOM     31  C50 UNK     0      -0.332 -39.838  -5.809  0.00  0.00    +0.000 C 
ATOM     32  C51 UNK     0      -1.310 -38.948  -6.598  0.00  0.00    +0.000 C 
ATOM     33  N52 UNK     0      -1.743 -39.513  -7.779  0.00  0.00    +0.000 N 
ATOM     34  C53 UNK     0      -2.860 -38.962  -8.532  0.00  0.00    +0.000 C 
ATOM     35  C54 UNK     0      -4.176 -39.375  -7.822  0.00  0.00    +0.000 C 
ATOM     36  N55 UNK     0      -5.260 -38.584  -8.151  0.00  0.00    +0.000 N 
ATOM     37  O56 UNK     0      -1.704 -37.858  -6.192  0.00  0.00    +0.000 OA
ATOM     38  O60 UNK     0      -4.249 -40.351  -7.080  0.00  0.00    +0.000 OA
ATOM     39  C61 UNK     0      -6.578 -38.688  -7.507  0.00  0.00    +0.000 C 
ATOM     40  C65 UNK     0      -6.488 -37.960  -6.133  0.00  0.00    +0.000 C 
ATOM     41  N66 UNK     0      -6.201 -36.580  -6.140  0.00  0.00    +0.000 N 
ATOM     42  C67 UNK     0      -6.032 -35.934  -4.805  0.00  0.00    +0.000 C 
ATOM     43  C68 UNK     0      -6.625 -35.715  -7.241  0.00  0.00    +0.000 C 
ATOM     44  O69 UNK     0      -6.679 -38.552  -5.065  0.00  0.00    +0.000 OA
ATOM     45  C70 UNK     0      -7.443 -35.551  -4.299  0.00  0.00    +0.000 C 
ATOM     46  N71 UNK     0      -8.109 -36.590  -3.673  0.00  0.00    +0.000 N 
ATOM     47  O72 UNK     0      -7.969 -34.466  -4.530  0.00  0.00    +0.000 OA
ATOM     48  C73 UNK     0      -9.548 -36.494  -3.420  0.00  0.00    +0.000 C 
ATOM     49  C74 UNK     0     -10.119 -37.881  -3.144  0.00  0.00    +0.000 C 
ATOM     50  C77 UNK     0       1.444 -40.031  -7.500  0.00  0.00    +0.000 C 
ATOM     51  C78 UNK     0      -8.832 -33.362  -0.175  0.00  0.00    +0.000 C 
ATOM     52  H2  UNK     0      -8.028 -36.021  -1.436  0.00  0.00    +0.000 HD
ATOM     53  H58 UNK     0      -0.894 -42.141  -3.754  0.00  0.00    +0.000 HD
ATOM     54  H69 UNK     0      -1.514 -40.499  -7.876  0.00  0.00    +0.000 HD
ATOM     55  H71 UNK     0      -5.031 -37.680  -8.541  0.00  0.00    +0.000 HD
ATOM     56  H90 UNK     0      -7.721 -37.518  -3.856  0.00  0.00    +0.000 HD
ENDROOT
BRANCH  39  57
ATOM     57  C62 UNK     0      -7.174 -40.119  -7.426  0.00  0.00    +0.000 C 
ATOM     58  C63 UNK     0      -8.613 -40.081  -6.888  0.00  0.00    +0.000 C 
ATOM     59  C64 UNK     0      -7.197 -40.806  -8.799  0.00  0.00    +0.000 C 
ENDBRANCH  39  57
BRANCH  19  60
ATOM     60  C25 UNK     0      -2.942 -41.782  -1.432  0.00  0.00    +0.000 C 
ATOM     61  C30 UNK     0      -4.388 -42.280  -1.508  0.00  0.00    +0.000 C 
ATOM     62  C31 UNK     0      -2.844 -40.337  -1.928  0.00  0.00    +0.000 C 
ENDBRANCH  19  60
BRANCH  20  63
ATOM     63  O27 UNK     0      -0.101 -40.818  -0.351  0.00  0.00    +0.000 OA
ATOM     64  H34 UNK     0      -0.770 -40.316  -0.861  0.00  0.00    +0.000 HD
ENDBRANCH  20  63
BRANCH  27  65
ATOM     65  C45 UNK     0      -1.997 -42.853  -5.959  0.00  0.00    +0.000 C 
ATOM     66  C46 UNK     0      -2.864 -43.351  -4.810  0.00  0.00    +0.000 C 
ENDBRANCH  27  65
BRANCH  23  67
ATOM     67  C34 UNK     0       2.387 -42.683  -1.522  0.00  0.00    +0.000 C 
BRANCH  67  68
ATOM     68  C35 UNK     0       3.578 -41.872  -2.122  0.00  0.00    +0.000 C 
ATOM     69  C41 UNK     0       4.838 -41.853  -1.252  0.00  0.00    +0.000 C 
BRANCH  68  70
ATOM     70  C36 UNK     0       3.109 -40.423  -2.429  0.00  0.00    +0.000 C 
BRANCH  70  71
ATOM     71  C37 UNK     0       4.179 -39.561  -3.047  0.00  0.00    +0.000 C 
ATOM     72  C38 UNK     0       4.360 -39.427  -4.370  0.00  0.00    +0.000 C 
ATOM     73  C39 UNK     0       5.425 -38.580  -4.986  0.00  0.00    +0.000 C 
ENDBRANCH  70  71
ENDBRANCH  68  70
ENDBRANCH  67  68
BRANCH  67  74
ATOM     74  O40 UNK     0       2.319 -42.310  -0.127  0.00  0.00    +0.000 OA
ATOM     75  H54 UNK     0       3.149 -42.641   0.273  0.00  0.00    +0.000 HD
ENDBRANCH  67  74
ENDBRANCH  23  67
BRANCH  34  76
ATOM     76  C57 UNK     0      -2.804 -39.494  -9.973  0.00  0.00    +0.000 C 
BRANCH  76  77
ATOM     77  C58 UNK     0      -2.637 -38.444 -11.089  0.00  0.00    +0.000 C 
ATOM     78  C59 UNK     0      -2.903 -37.020 -10.600  0.00  0.00    +0.000 C 
ATOM     79  C76 UNK     0      -1.219 -38.531 -11.666  0.00  0.00    +0.000 C 
ENDBRANCH  76  77
ENDBRANCH  34  76
BRANCH  12  80
ATOM     80  C21 UNK     0      -3.048 -38.270   1.390  0.00  0.00    +0.000 C 
BRANCH  80  81
ATOM     81  C82 UNK     0      -2.447 -37.670   0.103  0.00  0.00    +0.000 C 
ATOM     82  C83 UNK     0      -1.344 -36.654   0.392  0.00  0.00    +0.000 C 
ATOM     83  C84 UNK     0      -3.554 -37.004  -0.720  0.00  0.00    +0.000 C 
ENDBRANCH  80  81
ENDBRANCH  12  80
BRANCH  42  84
ATOM     84  C75 UNK     0      -5.071 -34.727  -4.863  0.00  0.00    +0.000 C 
BRANCH  84  85
ATOM     85  C79 UNK     0      -3.618 -35.082  -5.241  0.00  0.00    +0.000 C 
ATOM     86  C80 UNK     0      -2.629 -34.854  -4.098  0.00  0.00    +0.000 C 
ATOM     87  C81 UNK     0      -3.187 -34.257  -6.458  0.00  0.00    +0.000 C 
ENDBRANCH  84  85
ENDBRANCH  42  84
BRANCH   9  88
ATOM     88  C15 UNK     0      -8.458 -38.564   3.487  0.00  0.00    +0.000 C 
BRANCH  88  89
ATOM     89  C16 UNK     0      -8.668 -37.827   4.831  0.00  0.00    +0.000 C 
ATOM     90  C17 UNK     0     -10.141 -37.647   5.192  0.00  0.00    +0.000 C 
ATOM     91  C18 UNK     0      -7.952 -38.583   5.954  0.00  0.00    +0.000 C 
ENDBRANCH  88  89
ENDBRANCH   9  88
TORSDOF 17
ENDMDL
MODEL 6
REMARK VINA RESULT:      -5.2      3.028      8.350
REMARK  Name = CyclosporineA.pdb
REMARK  40 active torsions:
REMARK  status: ('A' for Active; 'I' for Inactive)
REMARK    1  A    between atoms: C1_1  and  C78_78
REMARK    2  A    between atoms: N7_7  and  C8_8
REMARK    3  A    between atoms: C9_9  and  C15_15
REMARK    4  A    between atoms: N11_11  and  C20_20
REMARK    5  A    between atoms: C12_12  and  C21_21
REMARK    6  A    between atoms: N14_14  and  C23_23
REMARK    7  A    between atoms: C15_15  and  C16_16
REMARK    8  A    between atoms: C16_16  and  C17_17
REMARK    9  A    between atoms: C16_16  and  C18_18
REMARK   10  A    between atoms: C21_21  and  C82_82
REMARK   11  A    between atoms: C24_24  and  C25_25
REMARK   12  A    between atoms: C25_25  and  C30_30
REMARK   13  A    between atoms: C25_25  and  C31_31
REMARK   14  A    between atoms: C26_26  and  O27_27
REMARK   15  A    between atoms: N28_28  and  C29_29
REMARK   16  A    between atoms: C32_32  and  C34_34
REMARK   17  A    between atoms: C34_34  and  C35_35
REMARK   18  A    between atoms: C34_34  and  O40_40
REMARK   19  A    between atoms: C35_35  and  C36_36
REMARK   20  A    between atoms: C35_35  and  C41_41
REMARK   21  A    between atoms: C36_36  and  C37_37
REMARK   22  A    between atoms: C38_38  and  C39_39
REMARK   23  A    between atoms: C44_44  and  C45_45
REMARK   24  A    between atoms: C45_45  and  C46_46
REMARK   25  A    between atoms: N49_49  and  C77_77
REMARK   26  A    between atoms: C53_53  and  C57_57
REMARK   27  A    between atoms: C57_57  and  C58_58
REMARK   28  A    between atoms: C58_58  and  C59_59
REMARK   29  A    between atoms: C58_58  and  C76_76
REMARK   30  A    between atoms: C61_61  and  C62_62
REMARK   31  A    between atoms: C62_62  and  C63_63
REMARK   32  A    between atoms: C62_62  and  C64_64
REMARK   33  A    between atoms: N66_66  and  C68_68
REMARK   34  A    between atoms: C67_67  and  C75_75
REMARK   35  A    between atoms: C73_73  and  C74_74
REMARK   36  A    between atoms: C75_75  and  C79_79
REMARK   37  A    between atoms: C79_79  and  C80_80
REMARK   38  A    between atoms: C79_79  and  C81_81
REMARK   39  A    between atoms: C82_82  and  C83_83
REMARK   40  A    between atoms: C82_82  and  C84_84
REMARK                            x       y       z     vdW  Elec       q    Type
REMARK                         _______ _______ _______ _____ _____    ______ ____
ROOT
ATOM      1  C1  UNK     0       0.782 -44.239   0.484  0.00  0.00    +0.000 C 
ATOM      2  C2  UNK     0       1.039 -43.865  -1.002  0.00  0.00    +0.000 C 
ATOM      3  N3  UNK     0      -0.617 -43.933   0.740  0.00  0.00    +0.000 N 
ATOM      4  C4  UNK     0      -1.365 -44.558   1.709  0.00  0.00    +0.000 C 
ATOM      5  O5  UNK     0      -0.939 -45.494   2.382  0.00  0.00    +0.000 OA
ATOM      6  C6  UNK     0       1.690 -42.716  -1.274  0.00  0.00    +0.000 C 
ATOM      7  N7  UNK     0       0.543 -44.742  -2.018  0.00  0.00    +0.000 N 
ATOM      8  C8  UNK     0      -0.094 -46.025  -1.667  0.00  0.00    +0.000 C 
ATOM      9  C9  UNK     0       0.613 -44.412  -3.488  0.00  0.00    +0.000 C 
ATOM     10  C10 UNK     0      -0.593 -43.506  -3.924  0.00  0.00    +0.000 C 
ATOM     11  N11 UNK     0      -0.380 -42.517  -4.935  0.00  0.00    +0.000 N 
ATOM     12  C12 UNK     0      -1.245 -41.300  -5.075  0.00  0.00    +0.000 C 
ATOM     13  C13 UNK     0      -2.140 -41.386  -6.355  0.00  0.00    +0.000 C 
ATOM     14  N14 UNK     0      -2.567 -40.163  -6.940  0.00  0.00    +0.000 N 
ATOM     15  C19 UNK     0      -1.794 -43.663  -3.329  0.00  0.00    +0.000 C 
ATOM     16  C20 UNK     0       0.768 -42.569  -5.851  0.00  0.00    +0.000 C 
ATOM     17  C22 UNK     0      -2.450 -42.564  -6.931  0.00  0.00    +0.000 C 
ATOM     18  C23 UNK     0      -1.851 -39.862  -8.216  0.00  0.00    +0.000 C 
ATOM     19  C24 UNK     0      -4.063 -39.828  -7.017  0.00  0.00    +0.000 C 
ATOM     20  C26 UNK     0      -4.240 -38.318  -7.527  0.00  0.00    +0.000 C 
ATOM     21  N28 UNK     0      -5.618 -37.825  -7.463  0.00  0.00    +0.000 NA
ATOM     22  C29 UNK     0      -6.377 -38.238  -8.648  0.00  0.00    +0.000 C 
ATOM     23  C32 UNK     0      -5.770 -36.363  -7.167  0.00  0.00    +0.000 C 
ATOM     24  C33 UNK     0      -7.226 -36.187  -6.656  0.00  0.00    +0.000 C 
ATOM     25  O42 UNK     0      -8.090 -35.537  -7.235  0.00  0.00    +0.000 OA
ATOM     26  N43 UNK     0      -7.442 -36.893  -5.487  0.00  0.00    +0.000 N 
ATOM     27  C44 UNK     0      -8.709 -36.907  -4.785  0.00  0.00    +0.000 C 
ATOM     28  C47 UNK     0      -8.858 -35.589  -3.986  0.00  0.00    +0.000 C 
ATOM     29  C48 UNK     0      -9.932 -34.836  -4.303  0.00  0.00    +0.000 C 
ATOM     30  N49 UNK     0      -7.927 -35.181  -2.994  0.00  0.00    +0.000 N 
ATOM     31  C50 UNK     0      -6.665 -35.888  -2.639  0.00  0.00    +0.000 C 
ATOM     32  C51 UNK     0      -6.656 -36.329  -1.164  0.00  0.00    +0.000 C 
ATOM     33  N52 UNK     0      -7.914 -36.548  -0.644  0.00  0.00    +0.000 N 
ATOM     34  C53 UNK     0      -8.114 -37.219   0.633  0.00  0.00    +0.000 C 
ATOM     35  C54 UNK     0      -7.909 -38.741   0.419  0.00  0.00    +0.000 C 
ATOM     36  N55 UNK     0      -7.634 -39.436   1.581  0.00  0.00    +0.000 N 
ATOM     37  O56 UNK     0      -5.624 -36.514  -0.523  0.00  0.00    +0.000 OA
ATOM     38  O60 UNK     0      -8.036 -39.278  -0.678  0.00  0.00    +0.000 OA
ATOM     39  C61 UNK     0      -7.266 -40.860   1.620  0.00  0.00    +0.000 C 
ATOM     40  C65 UNK     0      -5.764 -40.967   1.222  0.00  0.00    +0.000 C 
ATOM     41  N66 UNK     0      -4.820 -40.332   2.054  0.00  0.00    +0.000 N 
ATOM     42  C67 UNK     0      -3.400 -40.377   1.595  0.00  0.00    +0.000 C 
ATOM     43  C68 UNK     0      -5.043 -40.182   3.492  0.00  0.00    +0.000 C 
ATOM     44  O69 UNK     0      -5.394 -41.602   0.229  0.00  0.00    +0.000 OA
ATOM     45  C70 UNK     0      -2.803 -41.717   2.086  0.00  0.00    +0.000 C 
ATOM     46  N71 UNK     0      -3.071 -42.785   1.248  0.00  0.00    +0.000 N 
ATOM     47  O72 UNK     0      -2.243 -41.847   3.171  0.00  0.00    +0.000 OA
ATOM     48  C73 UNK     0      -2.856 -44.157   1.713  0.00  0.00    +0.000 C 
ATOM     49  C74 UNK     0      -3.615 -45.132   0.820  0.00  0.00    +0.000 C 
ATOM     50  C77 UNK     0      -7.989 -33.828  -2.405  0.00  0.00    +0.000 C 
ATOM     51  C78 UNK     0       1.670 -43.569   1.541  0.00  0.00    +0.000 C 
ATOM     52  H2  UNK     0      -1.048 -43.186   0.209  0.00  0.00    +0.000 HD
ATOM     53  H58 UNK     0      -6.752 -37.599  -5.267  0.00  0.00    +0.000 HD
ATOM     54  H69 UNK     0      -8.653 -36.574  -1.342  0.00  0.00    +0.000 HD
ATOM     55  H71 UNK     0      -7.296 -38.874   2.349  0.00  0.00    +0.000 HD
ATOM     56  H90 UNK     0      -3.830 -42.624   0.582  0.00  0.00    +0.000 HD
ENDROOT
BRANCH  39  57
ATOM     57  C62 UNK     0      -8.199 -41.815   0.828  0.00  0.00    +0.000 C 
ATOM     58  C63 UNK     0      -7.830 -43.283   1.095  0.00  0.00    +0.000 C 
ATOM     59  C64 UNK     0      -9.674 -41.618   1.209  0.00  0.00    +0.000 C 
ENDBRANCH  39  57
BRANCH  19  60
ATOM     60  C25 UNK     0      -4.860 -40.042  -5.677  0.00  0.00    +0.000 C 
ATOM     61  C30 UNK     0      -5.437 -41.449  -5.489  0.00  0.00    +0.000 C 
ATOM     62  C31 UNK     0      -4.154 -39.576  -4.401  0.00  0.00    +0.000 C 
ENDBRANCH  19  60
BRANCH  20  63
ATOM     63  O27 UNK     0      -3.345 -37.470  -6.797  0.00  0.00    +0.000 OA
ATOM     64  H34 UNK     0      -2.559 -37.396  -7.377  0.00  0.00    +0.000 HD
ENDBRANCH  20  63
BRANCH  27  65
ATOM     65  C45 UNK     0      -8.873 -38.188  -3.949  0.00  0.00    +0.000 C 
ATOM     66  C46 UNK     0     -10.259 -38.334  -3.335  0.00  0.00    +0.000 C 
ENDBRANCH  27  65
BRANCH  23  67
ATOM     67  C34 UNK     0      -5.415 -35.347  -8.297  0.00  0.00    +0.000 C 
BRANCH  67  68
ATOM     68  C35 UNK     0      -4.735 -34.029  -7.813  0.00  0.00    +0.000 C 
ATOM     69  C41 UNK     0      -3.206 -34.037  -7.886  0.00  0.00    +0.000 C 
BRANCH  68  70
ATOM     70  C36 UNK     0      -5.208 -33.707  -6.369  0.00  0.00    +0.000 C 
BRANCH  70  71
ATOM     71  C37 UNK     0      -4.099 -33.734  -5.350  0.00  0.00    +0.000 C 
ATOM     72  C38 UNK     0      -3.921 -34.725  -4.464  0.00  0.00    +0.000 C 
ATOM     73  C39 UNK     0      -2.828 -34.751  -3.447  0.00  0.00    +0.000 C 
ENDBRANCH  70  71
ENDBRANCH  68  70
ENDBRANCH  67  68
BRANCH  67  74
ATOM     74  O40 UNK     0      -4.483 -35.955  -9.221  0.00  0.00    +0.000 OA
ATOM     75  H54 UNK     0      -3.693 -35.377  -9.213  0.00  0.00    +0.000 HD
ENDBRANCH  67  74
ENDBRANCH  23  67
BRANCH  34  76
ATOM     76  C57 UNK     0      -9.528 -36.905   1.147  0.00  0.00    +0.000 C 
BRANCH  76  77
ATOM     77  C58 UNK     0      -9.653 -35.740   2.150  0.00  0.00    +0.000 C 
ATOM     78  C59 UNK     0      -8.401 -35.571   3.012  0.00  0.00    +0.000 C 
ATOM     79  C76 UNK     0      -9.932 -34.438   1.391  0.00  0.00    +0.000 C 
ENDBRANCH  76  77
ENDBRANCH  34  76
BRANCH  12  80
ATOM     80  C21 UNK     0      -0.403 -39.992  -5.009  0.00  0.00    +0.000 C 
BRANCH  80  81
ATOM     81  C82 UNK     0      -0.477 -39.218  -3.677  0.00  0.00    +0.000 C 
ATOM     82  C83 UNK     0      -0.959 -37.781  -3.863  0.00  0.00    +0.000 C 
ATOM     83  C84 UNK     0       0.901 -39.214  -3.008  0.00  0.00    +0.000 C 
ENDBRANCH  80  81
ENDBRANCH  12  80
BRANCH  42  84
ATOM     84  C75 UNK     0      -2.596 -39.152   2.079  0.00  0.00    +0.000 C 
BRANCH  84  85
ATOM     85  C79 UNK     0      -1.703 -38.504   1.000  0.00  0.00    +0.000 C 
ATOM     86  C80 UNK     0      -2.043 -37.037   0.743  0.00  0.00    +0.000 C 
ATOM     87  C81 UNK     0      -1.826 -39.291  -0.309  0.00  0.00    +0.000 C 
ENDBRANCH  84  85
ENDBRANCH  42  84
BRANCH   9  88
ATOM     88  C15 UNK     0       0.797 -45.645  -4.421  0.00  0.00    +0.000 C 
BRANCH  88  89
ATOM     89  C16 UNK     0       2.272 -45.934  -4.789  0.00  0.00    +0.000 C 
ATOM     90  C17 UNK     0       2.908 -47.013  -3.914  0.00  0.00    +0.000 C 
ATOM     91  C18 UNK     0       2.367 -46.345  -6.261  0.00  0.00    +0.000 C 
ENDBRANCH  88  89
ENDBRANCH   9  88
TORSDOF 17
ENDMDL
MODEL 7
REMARK VINA RESULT:      -5.0      4.343     10.688
REMARK  Name = CyclosporineA.pdb
REMARK  40 active torsions:
REMARK  status: ('A' for Active; 'I' for Inactive)
REMARK    1  A    between atoms: C1_1  and  C78_78
REMARK    2  A    between atoms: N7_7  and  C8_8
REMARK    3  A    between atoms: C9_9  and  C15_15
REMARK    4  A    between atoms: N11_11  and  C20_20
REMARK    5  A    between atoms: C12_12  and  C21_21
REMARK    6  A    between atoms: N14_14  and  C23_23
REMARK    7  A    between atoms: C15_15  and  C16_16
REMARK    8  A    between atoms: C16_16  and  C17_17
REMARK    9  A    between atoms: C16_16  and  C18_18
REMARK   10  A    between atoms: C21_21  and  C82_82
REMARK   11  A    between atoms: C24_24  and  C25_25
REMARK   12  A    between atoms: C25_25  and  C30_30
REMARK   13  A    between atoms: C25_25  and  C31_31
REMARK   14  A    between atoms: C26_26  and  O27_27
REMARK   15  A    between atoms: N28_28  and  C29_29
REMARK   16  A    between atoms: C32_32  and  C34_34
REMARK   17  A    between atoms: C34_34  and  C35_35
REMARK   18  A    between atoms: C34_34  and  O40_40
REMARK   19  A    between atoms: C35_35  and  C36_36
REMARK   20  A    between atoms: C35_35  and  C41_41
REMARK   21  A    between atoms: C36_36  and  C37_37
REMARK   22  A    between atoms: C38_38  and  C39_39
REMARK   23  A    between atoms: C44_44  and  C45_45
REMARK   24  A    between atoms: C45_45  and  C46_46
REMARK   25  A    between atoms: N49_49  and  C77_77
REMARK   26  A    between atoms: C53_53  and  C57_57
REMARK   27  A    between atoms: C57_57  and  C58_58
REMARK   28  A    between atoms: C58_58  and  C59_59
REMARK   29  A    between atoms: C58_58  and  C76_76
REMARK   30  A    between atoms: C61_61  and  C62_62
REMARK   31  A    between atoms: C62_62  and  C63_63
REMARK   32  A    between atoms: C62_62  and  C64_64
REMARK   33  A    between atoms: N66_66  and  C68_68
REMARK   34  A    between atoms: C67_67  and  C75_75
REMARK   35  A    between atoms: C73_73  and  C74_74
REMARK   36  A    between atoms: C75_75  and  C79_79
REMARK   37  A    between atoms: C79_79  and  C80_80
REMARK   38  A    between atoms: C79_79  and  C81_81
REMARK   39  A    between atoms: C82_82  and  C83_83
REMARK   40  A    between atoms: C82_82  and  C84_84
REMARK                            x       y       z     vdW  Elec       q    Type
REMARK                         _______ _______ _______ _____ _____    ______ ____
ROOT
ATOM      1  C1  UNK     0     -14.612 -36.273  -4.276  0.00  0.00    +0.000 C 
ATOM      2  C2  UNK     0     -14.889 -37.736  -3.830  0.00  0.00    +0.000 C 
ATOM      3  N3  UNK     0     -13.187 -36.202  -4.558  0.00  0.00    +0.000 N 
ATOM      4  C4  UNK     0     -12.630 -35.298  -5.430  0.00  0.00    +0.000 C 
ATOM      5  O5  UNK     0     -13.303 -34.531  -6.117  0.00  0.00    +0.000 OA
ATOM      6  C6  UNK     0     -15.058 -37.988  -2.516  0.00  0.00    +0.000 C 
ATOM      7  N7  UNK     0     -14.919 -38.756  -4.832  0.00  0.00    +0.000 N 
ATOM      8  C8  UNK     0     -14.806 -38.417  -6.263  0.00  0.00    +0.000 C 
ATOM      9  C9  UNK     0     -15.043 -40.223  -4.501  0.00  0.00    +0.000 C 
ATOM     10  C10 UNK     0     -13.643 -40.846  -4.156  0.00  0.00    +0.000 C 
ATOM     11  N11 UNK     0     -13.574 -41.874  -3.165  0.00  0.00    +0.000 N 
ATOM     12  C12 UNK     0     -12.321 -42.179  -2.397  0.00  0.00    +0.000 C 
ATOM     13  C13 UNK     0     -11.709 -43.550  -2.835  0.00  0.00    +0.000 C 
ATOM     14  N14 UNK     0     -10.910 -44.244  -1.887  0.00  0.00    +0.000 N 
ATOM     15  C19 UNK     0     -12.538 -40.390  -4.782  0.00  0.00    +0.000 C 
ATOM     16  C20 UNK     0     -14.756 -42.643  -2.751  0.00  0.00    +0.000 C 
ATOM     17  C22 UNK     0     -11.971 -44.097  -4.039  0.00  0.00    +0.000 C 
ATOM     18  C23 UNK     0     -11.606 -45.440  -1.323  0.00  0.00    +0.000 C 
ATOM     19  C24 UNK     0      -9.429 -44.516  -2.180  0.00  0.00    +0.000 C 
ATOM     20  C26 UNK     0      -8.732 -45.121  -0.869  0.00  0.00    +0.000 C 
ATOM     21  N28 UNK     0      -7.277 -45.247  -0.970  0.00  0.00    +0.000 NA
ATOM     22  C29 UNK     0      -6.905 -46.490  -1.653  0.00  0.00    +0.000 C 
ATOM     23  C32 UNK     0      -6.518 -45.047   0.308  0.00  0.00    +0.000 C 
ATOM     24  C33 UNK     0      -5.059 -44.723  -0.116  0.00  0.00    +0.000 C 
ATOM     25  O42 UNK     0      -4.092 -45.433   0.132  0.00  0.00    +0.000 OA
ATOM     26  N43 UNK     0      -4.993 -43.552  -0.849  0.00  0.00    +0.000 N 
ATOM     27  C44 UNK     0      -3.757 -43.006  -1.371  0.00  0.00    +0.000 C 
ATOM     28  C47 UNK     0      -2.993 -42.300  -0.224  0.00  0.00    +0.000 C 
ATOM     29  C48 UNK     0      -1.759 -42.781   0.034  0.00  0.00    +0.000 C 
ATOM     30  N49 UNK     0      -3.547 -41.227   0.523  0.00  0.00    +0.000 N 
ATOM     31  C50 UNK     0      -4.929 -40.688   0.383  0.00  0.00    +0.000 C 
ATOM     32  C51 UNK     0      -4.921 -39.202  -0.018  0.00  0.00    +0.000 C 
ATOM     33  N52 UNK     0      -3.799 -38.824  -0.724  0.00  0.00    +0.000 N 
ATOM     34  C53 UNK     0      -3.719 -37.547  -1.419  0.00  0.00    +0.000 C 
ATOM     35  C54 UNK     0      -4.539 -37.656  -2.731  0.00  0.00    +0.000 C 
ATOM     36  N55 UNK     0      -4.915 -36.434  -3.257  0.00  0.00    +0.000 N 
ATOM     37  O56 UNK     0      -5.849 -38.434   0.226  0.00  0.00    +0.000 OA
ATOM     38  O60 UNK     0      -4.780 -38.731  -3.273  0.00  0.00    +0.000 OA
ATOM     39  C61 UNK     0      -5.810 -36.279  -4.413  0.00  0.00    +0.000 C 
ATOM     40  C65 UNK     0      -7.269 -36.489  -3.908  0.00  0.00    +0.000 C 
ATOM     41  N66 UNK     0      -7.765 -35.585  -2.947  0.00  0.00    +0.000 N 
ATOM     42  C67 UNK     0      -9.132 -35.869  -2.418  0.00  0.00    +0.000 C 
ATOM     43  C68 UNK     0      -7.316 -34.193  -2.899  0.00  0.00    +0.000 C 
ATOM     44  O69 UNK     0      -7.986 -37.397  -4.340  0.00  0.00    +0.000 OA
ATOM     45  C70 UNK     0     -10.144 -35.241  -3.406  0.00  0.00    +0.000 C 
ATOM     46  N71 UNK     0     -10.435 -36.049  -4.491  0.00  0.00    +0.000 N 
ATOM     47  O72 UNK     0     -10.564 -34.092  -3.300  0.00  0.00    +0.000 OA
ATOM     48  C73 UNK     0     -11.117 -35.491  -5.661  0.00  0.00    +0.000 C 
ATOM     49  C74 UNK     0     -10.931 -36.417  -6.859  0.00  0.00    +0.000 C 
ATOM     50  C77 UNK     0      -2.877 -40.720   1.737  0.00  0.00    +0.000 C 
ATOM     51  C78 UNK     0     -15.014 -35.155  -3.306  0.00  0.00    +0.000 C 
ATOM     52  H2  UNK     0     -12.567 -36.818  -4.046  0.00  0.00    +0.000 HD
ATOM     53  H58 UNK     0      -5.872 -43.216  -1.219  0.00  0.00    +0.000 HD
ATOM     54  H69 UNK     0      -3.229 -39.603  -1.044  0.00  0.00    +0.000 HD
ATOM     55  H71 UNK     0      -4.898 -35.662  -2.606  0.00  0.00    +0.000 HD
ATOM     56  H90 UNK     0      -9.768 -36.808  -4.649  0.00  0.00    +0.000 HD
ENDROOT
BRANCH  39  57
ATOM     57  C62 UNK     0      -5.446 -37.125  -5.662  0.00  0.00    +0.000 C 
ATOM     58  C63 UNK     0      -6.354 -36.765  -6.849  0.00  0.00    +0.000 C 
ATOM     59  C64 UNK     0      -3.989 -36.907  -6.094  0.00  0.00    +0.000 C 
ENDBRANCH  39  57
BRANCH  19  60
ATOM     60  C25 UNK     0      -8.616 -43.270  -2.697  0.00  0.00    +0.000 C 
ATOM     61  C30 UNK     0      -8.659 -43.058  -4.213  0.00  0.00    +0.000 C 
ATOM     62  C31 UNK     0      -8.879 -41.954  -1.962  0.00  0.00    +0.000 C 
ENDBRANCH  19  60
BRANCH  20  63
ATOM     63  O27 UNK     0      -9.112 -44.335   0.268  0.00  0.00    +0.000 OA
ATOM     64  H34 UNK     0     -10.033 -44.060   0.072  0.00  0.00    +0.000 HD
ENDBRANCH  20  63
BRANCH  27  65
ATOM     65  C45 UNK     0      -4.009 -42.130  -2.610  0.00  0.00    +0.000 C 
ATOM     66  C46 UNK     0      -4.989 -42.750  -3.598  0.00  0.00    +0.000 C 
ENDBRANCH  27  65
BRANCH  23  67
ATOM     67  C34 UNK     0      -6.583 -46.178   1.381  0.00  0.00    +0.000 C 
BRANCH  67  68
ATOM     68  C35 UNK     0      -5.823 -45.874   2.709  0.00  0.00    +0.000 C 
ATOM     69  C41 UNK     0      -4.982 -47.038   3.242  0.00  0.00    +0.000 C 
BRANCH  68  70
ATOM     70  C36 UNK     0      -6.837 -45.400   3.785  0.00  0.00    +0.000 C 
BRANCH  70  71
ATOM     71  C37 UNK     0      -6.664 -43.958   4.184  0.00  0.00    +0.000 C 
ATOM     72  C38 UNK     0      -5.633 -43.193   3.796  0.00  0.00    +0.000 C 
ATOM     73  C39 UNK     0      -5.453 -41.766   4.198  0.00  0.00    +0.000 C 
ENDBRANCH  70  71
ENDBRANCH  68  70
ENDBRANCH  67  68
BRANCH  67  74
ATOM     74  O40 UNK     0      -7.959 -46.412   1.758  0.00  0.00    +0.000 OA
ATOM     75  H54 UNK     0      -7.917 -46.940   2.581  0.00  0.00    +0.000 HD
ENDBRANCH  67  74
ENDBRANCH  23  67
BRANCH  34  76
ATOM     76  C57 UNK     0      -2.243 -37.221  -1.699  0.00  0.00    +0.000 C 
BRANCH  76  77
ATOM     77  C58 UNK     0      -1.442 -38.278  -2.486  0.00  0.00    +0.000 C 
ATOM     78  C59 UNK     0      -1.013 -37.780  -3.867  0.00  0.00    +0.000 C 
ATOM     79  C76 UNK     0      -0.203 -38.686  -1.680  0.00  0.00    +0.000 C 
ENDBRANCH  76  77
ENDBRANCH  34  76
BRANCH  12  80
ATOM     80  C21 UNK     0     -12.556 -42.081  -0.861  0.00  0.00    +0.000 C 
BRANCH  80  81
ATOM     81  C82 UNK     0     -11.944 -40.846  -0.170  0.00  0.00    +0.000 C 
ATOM     82  C83 UNK     0     -11.165 -41.209   1.092  0.00  0.00    +0.000 C 
ATOM     83  C84 UNK     0     -13.054 -39.851   0.182  0.00  0.00    +0.000 C 
ENDBRANCH  80  81
ENDBRANCH  12  80
BRANCH  42  84
ATOM     84  C75 UNK     0      -9.313 -35.357  -0.974  0.00  0.00    +0.000 C 
BRANCH  84  85
ATOM     85  C79 UNK     0      -9.594 -36.461   0.067  0.00  0.00    +0.000 C 
ATOM     86  C80 UNK     0      -8.636 -36.421   1.257  0.00  0.00    +0.000 C 
ATOM     87  C81 UNK     0      -9.513 -37.835  -0.606  0.00  0.00    +0.000 C 
ENDBRANCH  84  85
ENDBRANCH  42  84
BRANCH   9  88
ATOM     88  C15 UNK     0     -15.822 -41.062  -5.557  0.00  0.00    +0.000 C 
BRANCH  88  89
ATOM     89  C16 UNK     0     -17.345 -41.135  -5.294  0.00  0.00    +0.000 C 
ATOM     90  C17 UNK     0     -17.731 -40.702  -3.882  0.00  0.00    +0.000 C 
ATOM     91  C18 UNK     0     -18.088 -40.272  -6.318  0.00  0.00    +0.000 C 
ENDBRANCH  88  89
ENDBRANCH   9  88
TORSDOF 17
ENDMDL
MODEL 8
REMARK VINA RESULT:      -5.0      4.176     10.568
REMARK  Name = CyclosporineA.pdb
REMARK  40 active torsions:
REMARK  status: ('A' for Active; 'I' for Inactive)
REMARK    1  A    between atoms: C1_1  and  C78_78
REMARK    2  A    between atoms: N7_7  and  C8_8
REMARK    3  A    between atoms: C9_9  and  C15_15
REMARK    4  A    between atoms: N11_11  and  C20_20
REMARK    5  A    between atoms: C12_12  and  C21_21
REMARK    6  A    between atoms: N14_14  and  C23_23
REMARK    7  A    between atoms: C15_15  and  C16_16
REMARK    8  A    between atoms: C16_16  and  C17_17
REMARK    9  A    between atoms: C16_16  and  C18_18
REMARK   10  A    between atoms: C21_21  and  C82_82
REMARK   11  A    between atoms: C24_24  and  C25_25
REMARK   12  A    between atoms: C25_25  and  C30_30
REMARK   13  A    between atoms: C25_25  and  C31_31
REMARK   14  A    between atoms: C26_26  and  O27_27
REMARK   15  A    between atoms: N28_28  and  C29_29
REMARK   16  A    between atoms: C32_32  and  C34_34
REMARK   17  A    between atoms: C34_34  and  C35_35
REMARK   18  A    between atoms: C34_34  and  O40_40
REMARK   19  A    between atoms: C35_35  and  C36_36
REMARK   20  A    between atoms: C35_35  and  C41_41
REMARK   21  A    between atoms: C36_36  and  C37_37
REMARK   22  A    between atoms: C38_38  and  C39_39
REMARK   23  A    between atoms: C44_44  and  C45_45
REMARK   24  A    between atoms: C45_45  and  C46_46
REMARK   25  A    between atoms: N49_49  and  C77_77
REMARK   26  A    between atoms: C53_53  and  C57_57
REMARK   27  A    between atoms: C57_57  and  C58_58
REMARK   28  A    between atoms: C58_58  and  C59_59
REMARK   29  A    between atoms: C58_58  and  C76_76
REMARK   30  A    between atoms: C61_61  and  C62_62
REMARK   31  A    between atoms: C62_62  and  C63_63
REMARK   32  A    between atoms: C62_62  and  C64_64
REMARK   33  A    between atoms: N66_66  and  C68_68
REMARK   34  A    between atoms: C67_67  and  C75_75
REMARK   35  A    between atoms: C73_73  and  C74_74
REMARK   36  A    between atoms: C75_75  and  C79_79
REMARK   37  A    between atoms: C79_79  and  C80_80
REMARK   38  A    between atoms: C79_79  and  C81_81
REMARK   39  A    between atoms: C82_82  and  C83_83
REMARK   40  A    between atoms: C82_82  and  C84_84
REMARK                            x       y       z     vdW  Elec       q    Type
REMARK                         _______ _______ _______ _____ _____    ______ ____
ROOT
ATOM      1  C1  UNK     0      -4.859 -34.446  -8.289  0.00  0.00    +0.000 C 
ATOM      2  C2  UNK     0      -4.342 -35.648  -9.128  0.00  0.00    +0.000 C 
ATOM      3  N3  UNK     0      -4.584 -34.778  -6.900  0.00  0.00    +0.000 N 
ATOM      4  C4  UNK     0      -4.406 -33.835  -5.916  0.00  0.00    +0.000 C 
ATOM      5  O5  UNK     0      -4.373 -32.628  -6.145  0.00  0.00    +0.000 OA
ATOM      6  C6  UNK     0      -5.241 -36.529  -9.613  0.00  0.00    +0.000 C 
ATOM      7  N7  UNK     0      -2.931 -35.784  -9.319  0.00  0.00    +0.000 N 
ATOM      8  C8  UNK     0      -1.997 -34.752  -8.834  0.00  0.00    +0.000 C 
ATOM      9  C9  UNK     0      -2.310 -36.981  -9.997  0.00  0.00    +0.000 C 
ATOM     10  C10 UNK     0      -2.112 -38.166  -8.985  0.00  0.00    +0.000 C 
ATOM     11  N11 UNK     0      -2.268 -39.506  -9.456  0.00  0.00    +0.000 N 
ATOM     12  C12 UNK     0      -2.607 -40.652  -8.550  0.00  0.00    +0.000 C 
ATOM     13  C13 UNK     0      -1.387 -41.615  -8.374  0.00  0.00    +0.000 C 
ATOM     14  N14 UNK     0      -1.663 -42.971  -8.052  0.00  0.00    +0.000 N 
ATOM     15  C19 UNK     0      -1.820 -37.899  -7.695  0.00  0.00    +0.000 C 
ATOM     16  C20 UNK     0      -2.207 -39.845 -10.885  0.00  0.00    +0.000 C 
ATOM     17  C22 UNK     0      -0.119 -41.206  -8.580  0.00  0.00    +0.000 C 
ATOM     18  C23 UNK     0      -1.429 -43.890  -9.206  0.00  0.00    +0.000 C 
ATOM     19  C24 UNK     0      -1.167 -43.564  -6.726  0.00  0.00    +0.000 C 
ATOM     20  C26 UNK     0      -1.791 -45.028  -6.535  0.00  0.00    +0.000 C 
ATOM     21  N28 UNK     0      -1.537 -45.617  -5.218  0.00  0.00    +0.000 NA
ATOM     22  C29 UNK     0      -0.217 -46.254  -5.175  0.00  0.00    +0.000 C 
ATOM     23  C32 UNK     0      -2.620 -46.510  -4.688  0.00  0.00    +0.000 C 
ATOM     24  C33 UNK     0      -2.384 -46.590  -3.155  0.00  0.00    +0.000 C 
ATOM     25  O42 UNK     0      -2.085 -47.615  -2.553  0.00  0.00    +0.000 OA
ATOM     26  N43 UNK     0      -2.511 -45.349  -2.557  0.00  0.00    +0.000 N 
ATOM     27  C44 UNK     0      -2.347 -45.128  -1.135  0.00  0.00    +0.000 C 
ATOM     28  C47 UNK     0      -3.633 -45.583  -0.402  0.00  0.00    +0.000 C 
ATOM     29  C48 UNK     0      -3.463 -46.551   0.523  0.00  0.00    +0.000 C 
ATOM     30  N49 UNK     0      -4.913 -45.036  -0.683  0.00  0.00    +0.000 N 
ATOM     31  C50 UNK     0      -5.221 -44.038  -1.746  0.00  0.00    +0.000 C 
ATOM     32  C51 UNK     0      -5.806 -42.742  -1.155  0.00  0.00    +0.000 C 
ATOM     33  N52 UNK     0      -5.402 -42.491   0.139  0.00  0.00    +0.000 N 
ATOM     34  C53 UNK     0      -5.622 -41.202   0.778  0.00  0.00    +0.000 C 
ATOM     35  C54 UNK     0      -4.572 -40.202   0.229  0.00  0.00    +0.000 C 
ATOM     36  N55 UNK     0      -4.922 -38.875   0.399  0.00  0.00    +0.000 N 
ATOM     37  O56 UNK     0      -6.527 -41.979  -1.792  0.00  0.00    +0.000 OA
ATOM     38  O60 UNK     0      -3.506 -40.564  -0.260  0.00  0.00    +0.000 OA
ATOM     39  C61 UNK     0      -4.161 -37.747  -0.159  0.00  0.00    +0.000 C 
ATOM     40  C65 UNK     0      -4.531 -37.632  -1.667  0.00  0.00    +0.000 C 
ATOM     41  N66 UNK     0      -5.873 -37.354  -1.993  0.00  0.00    +0.000 N 
ATOM     42  C67 UNK     0      -6.210 -37.341  -3.448  0.00  0.00    +0.000 C 
ATOM     43  C68 UNK     0      -6.726 -36.556  -1.112  0.00  0.00    +0.000 C 
ATOM     44  O69 UNK     0      -3.684 -37.756  -2.559  0.00  0.00    +0.000 OA
ATOM     45  C70 UNK     0      -5.877 -35.927  -3.982  0.00  0.00    +0.000 C 
ATOM     46  N71 UNK     0      -4.547 -35.763  -4.325  0.00  0.00    +0.000 N 
ATOM     47  O72 UNK     0      -6.687 -35.004  -3.995  0.00  0.00    +0.000 OA
ATOM     48  C73 UNK     0      -4.005 -34.420  -4.545  0.00  0.00    +0.000 C 
ATOM     49  C74 UNK     0      -2.482 -34.457  -4.469  0.00  0.00    +0.000 C 
ATOM     50  C77 UNK     0      -6.137 -45.637  -0.117  0.00  0.00    +0.000 C 
ATOM     51  C78 UNK     0      -6.333 -34.055  -8.456  0.00  0.00    +0.000 C 
ATOM     52  H2  UNK     0      -4.574 -35.755  -6.634  0.00  0.00    +0.000 HD
ATOM     53  H58 UNK     0      -2.480 -44.555  -3.183  0.00  0.00    +0.000 HD
ATOM     54  H69 UNK     0      -4.637 -43.081   0.457  0.00  0.00    +0.000 HD
ATOM     55  H71 UNK     0      -5.906 -38.707   0.558  0.00  0.00    +0.000 HD
ATOM     56  H90 UNK     0      -3.916 -36.471  -3.942  0.00  0.00    +0.000 HD
ENDROOT
BRANCH  39  57
ATOM     57  C62 UNK     0      -2.634 -37.766   0.119  0.00  0.00    +0.000 C 
ATOM     58  C63 UNK     0      -1.977 -36.462  -0.360  0.00  0.00    +0.000 C 
ATOM     59  C64 UNK     0      -2.327 -37.934   1.613  0.00  0.00    +0.000 C 
ENDBRANCH  39  57
BRANCH  19  60
ATOM     60  C25 UNK     0      -1.460 -42.682  -5.455  0.00  0.00    +0.000 C 
ATOM     61  C30 UNK     0      -0.403 -41.615  -5.155  0.00  0.00    +0.000 C 
ATOM     62  C31 UNK     0      -2.866 -42.083  -5.371  0.00  0.00    +0.000 C 
ENDBRANCH  19  60
BRANCH  20  63
ATOM     63  O27 UNK     0      -3.194 -44.980  -6.826  0.00  0.00    +0.000 OA
ATOM     64  H34 UNK     0      -3.623 -45.169  -5.966  0.00  0.00    +0.000 HD
ENDBRANCH  20  63
BRANCH  27  65
ATOM     65  C45 UNK     0      -1.915 -43.682  -0.838  0.00  0.00    +0.000 C 
ATOM     66  C46 UNK     0      -0.835 -43.169  -1.782  0.00  0.00    +0.000 C 
ENDBRANCH  27  65
BRANCH  23  67
ATOM     67  C34 UNK     0      -2.786 -47.920  -5.334  0.00  0.00    +0.000 C 
BRANCH  67  68
ATOM     68  C35 UNK     0      -3.992 -48.755  -4.799  0.00  0.00    +0.000 C 
ATOM     69  C41 UNK     0      -4.412 -49.917  -5.703  0.00  0.00    +0.000 C 
BRANCH  68  70
ATOM     70  C36 UNK     0      -5.195 -47.809  -4.536  0.00  0.00    +0.000 C 
BRANCH  70  71
ATOM     71  C37 UNK     0      -5.952 -48.131  -3.274  0.00  0.00    +0.000 C 
ATOM     72  C38 UNK     0      -5.424 -48.793  -2.234  0.00  0.00    +0.000 C 
ATOM     73  C39 UNK     0      -6.174 -49.122  -0.985  0.00  0.00    +0.000 C 
ENDBRANCH  70  71
ENDBRANCH  68  70
ENDBRANCH  67  68
BRANCH  67  74
ATOM     74  O40 UNK     0      -3.003 -47.781  -6.756  0.00  0.00    +0.000 OA
ATOM     75  H54 UNK     0      -3.297 -48.663  -7.063  0.00  0.00    +0.000 HD
ENDBRANCH  67  74
ENDBRANCH  23  67
BRANCH  34  76
ATOM     76  C57 UNK     0      -5.500 -41.372   2.302  0.00  0.00    +0.000 C 
BRANCH  76  77
ATOM     77  C58 UNK     0      -4.727 -42.610   2.797  0.00  0.00    +0.000 C 
ATOM     78  C59 UNK     0      -3.245 -42.320   3.037  0.00  0.00    +0.000 C 
ATOM     79  C76 UNK     0      -5.364 -43.128   4.092  0.00  0.00    +0.000 C 
ENDBRANCH  76  77
ENDBRANCH  34  76
BRANCH  12  80
ATOM     80  C21 UNK     0      -3.898 -41.386  -9.018  0.00  0.00    +0.000 C 
BRANCH  80  81
ATOM     81  C82 UNK     0      -5.225 -40.796  -8.500  0.00  0.00    +0.000 C 
ATOM     82  C83 UNK     0      -5.022 -39.847  -7.321  0.00  0.00    +0.000 C 
ATOM     83  C84 UNK     0      -6.167 -41.932  -8.088  0.00  0.00    +0.000 C 
ENDBRANCH  80  81
ENDBRANCH  12  80
BRANCH  42  84
ATOM     84  C75 UNK     0      -7.677 -37.746  -3.706  0.00  0.00    +0.000 C 
BRANCH  84  85
ATOM     85  C79 UNK     0      -7.965 -39.252  -3.539  0.00  0.00    +0.000 C 
ATOM     86  C80 UNK     0      -7.865 -40.030  -4.851  0.00  0.00    +0.000 C 
ATOM     87  C81 UNK     0      -9.361 -39.445  -2.939  0.00  0.00    +0.000 C 
ENDBRANCH  84  85
ENDBRANCH  42  84
BRANCH   9  88
ATOM     88  C15 UNK     0      -1.017 -36.669 -10.806  0.00  0.00    +0.000 C 
BRANCH  88  89
ATOM     89  C16 UNK     0       0.289 -37.020 -10.053  0.00  0.00    +0.000 C 
ATOM     90  C17 UNK     0       1.013 -38.229 -10.641  0.00  0.00    +0.000 C 
ATOM     91  C18 UNK     0       1.227 -35.809 -10.053  0.00  0.00    +0.000 C 
ENDBRANCH  88  89
ENDBRANCH   9  88
TORSDOF 17
ENDMDL
MODEL 9
REMARK VINA RESULT:      -4.9     24.963     28.636
REMARK  Name = CyclosporineA.pdb
REMARK  40 active torsions:
REMARK  status: ('A' for Active; 'I' for Inactive)
REMARK    1  A    between atoms: C1_1  and  C78_78
REMARK    2  A    between atoms: N7_7  and  C8_8
REMARK    3  A    between atoms: C9_9  and  C15_15
REMARK    4  A    between atoms: N11_11  and  C20_20
REMARK    5  A    between atoms: C12_12  and  C21_21
REMARK    6  A    between atoms: N14_14  and  C23_23
REMARK    7  A    between atoms: C15_15  and  C16_16
REMARK    8  A    between atoms: C16_16  and  C17_17
REMARK    9  A    between atoms: C16_16  and  C18_18
REMARK   10  A    between atoms: C21_21  and  C82_82
REMARK   11  A    between atoms: C24_24  and  C25_25
REMARK   12  A    between atoms: C25_25  and  C30_30
REMARK   13  A    between atoms: C25_25  and  C31_31
REMARK   14  A    between atoms: C26_26  and  O27_27
REMARK   15  A    between atoms: N28_28  and  C29_29
REMARK   16  A    between atoms: C32_32  and  C34_34
REMARK   17  A    between atoms: C34_34  and  C35_35
REMARK   18  A    between atoms: C34_34  and  O40_40
REMARK   19  A    between atoms: C35_35  and  C36_36
REMARK   20  A    between atoms: C35_35  and  C41_41
REMARK   21  A    between atoms: C36_36  and  C37_37
REMARK   22  A    between atoms: C38_38  and  C39_39
REMARK   23  A    between atoms: C44_44  and  C45_45
REMARK   24  A    between atoms: C45_45  and  C46_46
REMARK   25  A    between atoms: N49_49  and  C77_77
REMARK   26  A    between atoms: C53_53  and  C57_57
REMARK   27  A    between atoms: C57_57  and  C58_58
REMARK   28  A    between atoms: C58_58  and  C59_59
REMARK   29  A    between atoms: C58_58  and  C76_76
REMARK   30  A    between atoms: C61_61  and  C62_62
REMARK   31  A    between atoms: C62_62  and  C63_63
REMARK   32  A    between atoms: C62_62  and  C64_64
REMARK   33  A    between atoms: N66_66  and  C68_68
REMARK   34  A    between atoms: C67_67  and  C75_75
REMARK   35  A    between atoms: C73_73  and  C74_74
REMARK   36  A    between atoms: C75_75  and  C79_79
REMARK   37  A    between atoms: C79_79  and  C80_80
REMARK   38  A    between atoms: C79_79  and  C81_81
REMARK   39  A    between atoms: C82_82  and  C83_83
REMARK   40  A    between atoms: C82_82  and  C84_84
REMARK                            x       y       z     vdW  Elec       q    Type
REMARK                         _______ _______ _______ _____ _____    ______ ____
ROOT
ATOM      1  C1  UNK     0      -0.328 -21.233 -20.743  0.00  0.00    +0.000 C 
ATOM      2  C2  UNK     0       0.468 -20.083 -20.067  0.00  0.00    +0.000 C 
ATOM      3  N3  UNK     0      -1.662 -20.708 -20.992  0.00  0.00    +0.000 N 
ATOM      4  C4  UNK     0      -2.487 -21.174 -21.987  0.00  0.00    +0.000 C 
ATOM      5  O5  UNK     0      -2.132 -22.013 -22.811  0.00  0.00    +0.000 OA
ATOM      6  C6  UNK     0       0.671 -20.136 -18.734  0.00  0.00    +0.000 C 
ATOM      7  N7  UNK     0       0.922 -19.000 -20.884  0.00  0.00    +0.000 N 
ATOM      8  C8  UNK     0       0.742 -19.028 -22.348  0.00  0.00    +0.000 C 
ATOM      9  C9  UNK     0       1.582 -17.768 -20.317  0.00  0.00    +0.000 C 
ATOM     10  C10 UNK     0       0.512 -16.725 -19.831  0.00  0.00    +0.000 C 
ATOM     11  N11 UNK     0       0.802 -15.928 -18.681  0.00  0.00    +0.000 N 
ATOM     12  C12 UNK     0      -0.267 -15.301 -17.837  0.00  0.00    +0.000 C 
ATOM     13  C13 UNK     0      -0.295 -13.747 -18.021  0.00  0.00    +0.000 C 
ATOM     14  N14 UNK     0      -0.805 -12.969 -16.947  0.00  0.00    +0.000 N 
ATOM     15  C19 UNK     0      -0.659 -16.614 -20.492  0.00  0.00    +0.000 C 
ATOM     16  C20 UNK     0       2.172 -15.748 -18.178  0.00  0.00    +0.000 C 
ATOM     17  C22 UNK     0       0.200 -13.150 -19.123  0.00  0.00    +0.000 C 
ATOM     18  C23 UNK     0       0.272 -12.239 -16.211  0.00  0.00    +0.000 C 
ATOM     19  C24 UNK     0      -2.059 -12.108 -17.148  0.00  0.00    +0.000 C 
ATOM     20  C26 UNK     0      -2.521 -11.509 -15.734  0.00  0.00    +0.000 C 
ATOM     21  N28 UNK     0      -3.815 -10.823 -15.771  0.00  0.00    +0.000 NA
ATOM     22  C29 UNK     0      -3.659  -9.437 -16.224  0.00  0.00    +0.000 C 
ATOM     23  C32 UNK     0      -4.640 -10.927 -14.522  0.00  0.00    +0.000 C 
ATOM     24  C33 UNK     0      -6.095 -10.596 -14.952  0.00  0.00    +0.000 C 
ATOM     25  O42 UNK     0      -6.728  -9.622 -14.560  0.00  0.00    +0.000 OA
ATOM     26  N43 UNK     0      -6.574 -11.514 -15.869  0.00  0.00    +0.000 N 
ATOM     27  C44 UNK     0      -7.905 -11.453 -16.439  0.00  0.00    +0.000 C 
ATOM     28  C47 UNK     0      -8.922 -11.993 -15.404  0.00  0.00    +0.000 C 
ATOM     29  C48 UNK     0      -9.889 -11.128 -15.034  0.00  0.00    +0.000 C 
ATOM     30  N49 UNK     0      -8.847 -13.305 -14.864  0.00  0.00    +0.000 N 
ATOM     31  C50 UNK     0      -7.769 -14.298 -15.133  0.00  0.00    +0.000 C 
ATOM     32  C51 UNK     0      -8.327 -15.581 -15.776  0.00  0.00    +0.000 C 
ATOM     33  N52 UNK     0      -9.482 -15.379 -16.502  0.00  0.00    +0.000 N 
ATOM     34  C53 UNK     0     -10.015 -16.395 -17.399  0.00  0.00    +0.000 C 
ATOM     35  C54 UNK     0      -9.167 -16.391 -18.697  0.00  0.00    +0.000 C 
ATOM     36  N55 UNK     0      -9.265 -17.558 -19.431  0.00  0.00    +0.000 N 
ATOM     37  O56 UNK     0      -7.771 -16.673 -15.691  0.00  0.00    +0.000 OA
ATOM     38  O60 UNK     0      -8.515 -15.415 -19.059  0.00  0.00    +0.000 OA
ATOM     39  C61 UNK     0      -8.453 -17.849 -20.622  0.00  0.00    +0.000 C 
ATOM     40  C65 UNK     0      -7.045 -18.298 -20.132  0.00  0.00    +0.000 C 
ATOM     41  N66 UNK     0      -6.966 -19.468 -19.351  0.00  0.00    +0.000 N 
ATOM     42  C67 UNK     0      -5.615 -19.819 -18.821  0.00  0.00    +0.000 C 
ATOM     43  C68 UNK     0      -7.912 -20.571 -19.524  0.00  0.00    +0.000 C 
ATOM     44  O69 UNK     0      -6.020 -17.674 -20.427  0.00  0.00    +0.000 OA
ATOM     45  C70 UNK     0      -4.881 -20.612 -19.930  0.00  0.00    +0.000 C 
ATOM     46  N71 UNK     0      -4.265 -19.809 -20.872  0.00  0.00    +0.000 N 
ATOM     47  O72 UNK     0      -4.935 -21.835 -20.029  0.00  0.00    +0.000 OA
ATOM     48  C73 UNK     0      -3.803 -20.382 -22.138  0.00  0.00    +0.000 C 
ATOM     49  C74 UNK     0      -3.578 -19.271 -23.158  0.00  0.00    +0.000 C 
ATOM     50  C77 UNK     0      -9.705 -13.711 -13.733  0.00  0.00    +0.000 C 
ATOM     51  C78 UNK     0      -0.418 -22.564 -19.986  0.00  0.00    +0.000 C 
ATOM     52  H2  UNK     0      -2.019 -19.996 -20.367  0.00  0.00    +0.000 HD
ATOM     53  H58 UNK     0      -5.876 -12.093 -16.315  0.00  0.00    +0.000 HD
ATOM     54  H69 UNK     0      -9.700 -14.400 -16.672  0.00  0.00    +0.000 HD
ATOM     55  H71 UNK     0      -9.599 -18.362 -18.918  0.00  0.00    +0.000 HD
ATOM     56  H90 UNK     0      -4.586 -18.838 -20.881  0.00  0.00    +0.000 HD
ENDROOT
BRANCH  39  57
ATOM     57  C62 UNK     0      -8.421 -16.734 -21.701  0.00  0.00    +0.000 C 
ATOM     58  C63 UNK     0      -7.699 -17.221 -22.968  0.00  0.00    +0.000 C 
ATOM     59  C64 UNK     0      -9.834 -16.285 -22.101  0.00  0.00    +0.000 C 
ENDBRANCH  39  57
BRANCH  19  60
ATOM     60  C25 UNK     0      -3.265 -12.845 -17.842  0.00  0.00    +0.000 C 
ATOM     61  C30 UNK     0      -3.257 -12.790 -19.372  0.00  0.00    +0.000 C 
ATOM     62  C31 UNK     0      -3.541 -14.270 -17.356  0.00  0.00    +0.000 C 
ENDBRANCH  19  60
BRANCH  20  63
ATOM     63  O27 UNK     0      -2.512 -12.558 -14.757  0.00  0.00    +0.000 OA
ATOM     64  H34 UNK     0      -3.401 -12.963 -14.832  0.00  0.00    +0.000 HD
ENDBRANCH  20  63
BRANCH  27  65
ATOM     65  C45 UNK     0      -7.958 -12.140 -17.814  0.00  0.00    +0.000 C 
ATOM     66  C46 UNK     0      -6.783 -11.781 -18.714  0.00  0.00    +0.000 C 
ENDBRANCH  27  65
BRANCH  23  67
ATOM     67  C34 UNK     0      -4.190 -10.101 -13.278  0.00  0.00    +0.000 C 
BRANCH  67  68
ATOM     68  C35 UNK     0      -4.571 -10.722 -11.898  0.00  0.00    +0.000 C 
ATOM     69  C41 UNK     0      -5.840 -11.578 -11.914  0.00  0.00    +0.000 C 
BRANCH  68  70
ATOM     70  C36 UNK     0      -4.692  -9.591 -10.841  0.00  0.00    +0.000 C 
BRANCH  70  71
ATOM     71  C37 UNK     0      -3.629  -9.644  -9.775  0.00  0.00    +0.000 C 
ATOM     72  C38 UNK     0      -2.524 -10.400  -9.858  0.00  0.00    +0.000 C 
ATOM     73  C39 UNK     0      -1.472 -10.463  -8.799  0.00  0.00    +0.000 C 
ENDBRANCH  70  71
ENDBRANCH  68  70
ENDBRANCH  67  68
BRANCH  67  74
ATOM     74  O40 UNK     0      -2.749  -9.978 -13.271  0.00  0.00    +0.000 OA
ATOM     75  H54 UNK     0      -2.569  -9.017 -13.228  0.00  0.00    +0.000 HD
ENDBRANCH  67  74
ENDBRANCH  23  67
BRANCH  34  76
ATOM     76  C57 UNK     0     -11.493 -16.082 -17.687  0.00  0.00    +0.000 C 
BRANCH  76  77
ATOM     77  C58 UNK     0     -12.200 -15.131 -16.701  0.00  0.00    +0.000 C 
ATOM     78  C59 UNK     0     -13.074 -14.095 -17.409  0.00  0.00    +0.000 C 
ATOM     79  C76 UNK     0     -13.060 -15.948 -15.729  0.00  0.00    +0.000 C 
ENDBRANCH  76  77
ENDBRANCH  34  76
BRANCH  12  80
ATOM     80  C21 UNK     0      -0.145 -15.733 -16.346  0.00  0.00    +0.000 C 
BRANCH  80  81
ATOM     81  C82 UNK     0      -1.078 -16.879 -15.906  0.00  0.00    +0.000 C 
ATOM     82  C83 UNK     0      -1.915 -16.513 -14.681  0.00  0.00    +0.000 C 
ATOM     83  C84 UNK     0      -0.249 -18.131 -15.604  0.00  0.00    +0.000 C 
ENDBRANCH  80  81
ENDBRANCH  12  80
BRANCH  42  84
ATOM     84  C75 UNK     0      -5.697 -20.593 -17.489  0.00  0.00    +0.000 C 
BRANCH  84  85
ATOM     85  C79 UNK     0      -4.643 -20.178 -16.441  0.00  0.00    +0.000 C 
ATOM     86  C80 UNK     0      -5.096 -19.010 -15.566  0.00  0.00    +0.000 C 
ATOM     87  C81 UNK     0      -3.335 -19.809 -17.146  0.00  0.00    +0.000 C 
ENDBRANCH  84  85
ENDBRANCH  42  84
BRANCH   9  88
ATOM     88  C15 UNK     0       2.660 -17.127 -21.239  0.00  0.00    +0.000 C 
BRANCH  88  89
ATOM     89  C16 UNK     0       4.060 -17.774 -21.104  0.00  0.00    +0.000 C 
ATOM     90  C17 UNK     0       5.201 -16.792 -21.359  0.00  0.00    +0.000 C 
ATOM     91  C18 UNK     0       4.213 -18.389 -19.710  0.00  0.00    +0.000 C 
ENDBRANCH  88  89
ENDBRANCH   9  88
TORSDOF 17
ENDMDL
