MODEL 1
REMARK VINA RESULT:      -5.6      0.000      0.000
REMARK  Name = Danazol.pdbqt.pdb
REMARK  2 active torsions:
REMARK  status: ('A' for Active; 'I' for Inactive)
REMARK    1  A    between atoms: C_9  and  O_23
REMARK    2  A    between atoms: C_9  and  C_25
REMARK                            x       y       z     vdW  Elec       q    Type
REMARK                         _______ _______ _______ _____ _____    ______ ____
ROOT
ATOM      1  O   UNL     1      -6.557  -8.503   1.775  0.00  0.00    +0.000 OA
ATOM      2  N   UNL     1      -6.009  -8.414   3.072  0.00  0.00    +0.000 NA
ATOM      3  C   UNL     1      -4.021 -14.872  -1.533  0.00  0.00    +0.000 C 
ATOM      4  C   UNL     1      -3.244 -15.937  -0.596  0.00  0.00    +0.000 C 
ATOM      5  C   UNL     1      -5.022 -13.924  -1.006  0.00  0.00    +0.000 C 
ATOM      6  C   UNL     1      -5.355 -13.696   0.443  0.00  0.00    +0.000 C 
ATOM      7  C   UNL     1      -6.508 -12.791   0.935  0.00  0.00    +0.000 C 
ATOM      8  C   UNL     1      -3.558 -15.529   0.782  0.00  0.00    +0.000 C 
ATOM      9  C   UNL     1      -1.683 -15.785  -1.050  0.00  0.00    +0.000 C 
ATOM     10  C   UNL     1      -4.546 -14.506   1.286  0.00  0.00    +0.000 C 
ATOM     11  C   UNL     1      -3.197 -14.540  -2.646  0.00  0.00    +0.000 C 
ATOM     12  C   UNL     1      -5.699 -13.023  -1.860  0.00  0.00    +0.000 C 
ATOM     13  C   UNL     1      -1.840 -15.108  -2.354  0.00  0.00    +0.000 C 
ATOM     14  C   UNL     1      -7.018 -11.653  -0.161  0.00  0.00    +0.000 C 
ATOM     15  C   UNL     1      -3.879 -17.338  -0.921  0.00  0.00    +0.000 C 
ATOM     16  C   UNL     1      -6.655 -11.925  -1.503  0.00  0.00    +0.000 C 
ATOM     17  C   UNL     1      -6.054 -11.973   2.115  0.00  0.00    +0.000 C 
ATOM     18  C   UNL     1      -7.741 -13.670   1.288  0.00  0.00    +0.000 C 
ATOM     19  C   UNL     1      -7.011 -10.401   0.243  0.00  0.00    +0.000 C 
ATOM     20  C   UNL     1      -6.061 -10.585   2.441  0.00  0.00    +0.000 A 
ATOM     21  C   UNL     1      -6.573  -9.799   1.445  0.00  0.00    +0.000 A 
ATOM     22  C   UNL     1      -5.728  -9.681   3.446  0.00  0.00    +0.000 A 
ENDROOT
BRANCH   9  23
ATOM     23  O   UNL     1      -0.988 -17.026  -1.244  0.00  0.00    +0.000 OA
ATOM     24  H   UNL     1      -0.509 -17.227  -0.421  0.00  0.00    +0.000 HD
ENDBRANCH   9  23
BRANCH   9  25
ATOM     25  C   UNL     1      -0.925 -14.940  -0.094  0.00  0.00    +0.000 C 
ATOM     26  C   UNL     1      -0.292 -14.274   0.670  0.00  0.00    +0.000 C 
ENDBRANCH   9  25
TORSDOF 2
ENDMDL
MODEL 2
REMARK VINA RESULT:      -5.3     17.747     20.342
REMARK  Name = Danazol.pdbqt.pdb
REMARK  2 active torsions:
REMARK  status: ('A' for Active; 'I' for Inactive)
REMARK    1  A    between atoms: C_9  and  O_23
REMARK    2  A    between atoms: C_9  and  C_25
REMARK                            x       y       z     vdW  Elec       q    Type
REMARK                         _______ _______ _______ _____ _____    ______ ____
ROOT
ATOM      1  O   UNL     1       4.606 -34.101   2.778  0.00  0.00    +0.000 OA
ATOM      2  N   UNL     1       3.922 -35.078   2.026  0.00  0.00    +0.000 NA
ATOM      3  C   UNL     1       6.088 -28.137  -1.715  0.00  0.00    +0.000 C 
ATOM      4  C   UNL     1       5.369 -28.103  -3.163  0.00  0.00    +0.000 C 
ATOM      5  C   UNL     1       5.519 -28.853  -0.557  0.00  0.00    +0.000 C 
ATOM      6  C   UNL     1       4.315 -29.756  -0.573  0.00  0.00    +0.000 C 
ATOM      7  C   UNL     1       3.678 -30.373   0.694  0.00  0.00    +0.000 C 
ATOM      8  C   UNL     1       4.297 -29.106  -3.078  0.00  0.00    +0.000 C 
ATOM      9  C   UNL     1       6.581 -28.435  -4.204  0.00  0.00    +0.000 C 
ATOM     10  C   UNL     1       3.780 -29.871  -1.886  0.00  0.00    +0.000 C 
ATOM     11  C   UNL     1       7.495 -28.004  -1.888  0.00  0.00    +0.000 C 
ATOM     12  C   UNL     1       6.163 -28.842   0.701  0.00  0.00    +0.000 C 
ATOM     13  C   UNL     1       7.759 -28.155  -3.357  0.00  0.00    +0.000 C 
ATOM     14  C   UNL     1       4.685 -30.455   2.012  0.00  0.00    +0.000 C 
ATOM     15  C   UNL     1       4.769 -26.657  -3.309  0.00  0.00    +0.000 C 
ATOM     16  C   UNL     1       5.805 -29.590   1.951  0.00  0.00    +0.000 C 
ATOM     17  C   UNL     1       3.308 -31.811   0.437  0.00  0.00    +0.000 C 
ATOM     18  C   UNL     1       2.441 -29.530   1.115  0.00  0.00    +0.000 C 
ATOM     19  C   UNL     1       4.844 -31.640   2.559  0.00  0.00    +0.000 C 
ATOM     20  C   UNL     1       3.571 -33.050   1.090  0.00  0.00    +0.000 A 
ATOM     21  C   UNL     1       4.368 -32.921   2.194  0.00  0.00    +0.000 A 
ATOM     22  C   UNL     1       3.306 -34.415   1.024  0.00  0.00    +0.000 A 
ENDROOT
BRANCH   9  23
ATOM     23  O   UNL     1       6.627 -27.593  -5.367  0.00  0.00    +0.000 OA
ATOM     24  H   UNL     1       5.877 -26.976  -5.313  0.00  0.00    +0.000 HD
ENDBRANCH   9  23
BRANCH   9  25
ATOM     25  C   UNL     1       6.552 -29.857  -4.628  0.00  0.00    +0.000 C 
ATOM     26  C   UNL     1       6.514 -30.995  -4.992  0.00  0.00    +0.000 C 
ENDBRANCH   9  25
TORSDOF 2
ENDMDL
MODEL 3
REMARK VINA RESULT:      -5.1      2.727      4.996
REMARK  Name = Danazol.pdbqt.pdb
REMARK  2 active torsions:
REMARK  status: ('A' for Active; 'I' for Inactive)
REMARK    1  A    between atoms: C_9  and  O_23
REMARK    2  A    between atoms: C_9  and  C_25
REMARK                            x       y       z     vdW  Elec       q    Type
REMARK                         _______ _______ _______ _____ _____    ______ ____
ROOT
ATOM      1  O   UNL     1      -5.432 -11.119  -0.284  0.00  0.00    +0.000 OA
ATOM      2  N   UNL     1      -6.581 -11.582  -0.960  0.00  0.00    +0.000 NA
ATOM      3  C   UNL     1      -0.762 -17.007   0.930  0.00  0.00    +0.000 C 
ATOM      4  C   UNL     1      -1.107 -18.395   0.176  0.00  0.00    +0.000 C 
ATOM      5  C   UNL     1      -1.175 -15.690   0.408  0.00  0.00    +0.000 C 
ATOM      6  C   UNL     1      -2.076 -15.443  -0.772  0.00  0.00    +0.000 C 
ATOM      7  C   UNL     1      -2.368 -14.043  -1.361  0.00  0.00    +0.000 C 
ATOM      8  C   UNL     1      -2.078 -18.030  -0.867  0.00  0.00    +0.000 C 
ATOM      9  C   UNL     1      -1.667 -19.356   1.371  0.00  0.00    +0.000 C 
ATOM     10  C   UNL     1      -2.528 -16.668  -1.334  0.00  0.00    +0.000 C 
ATOM     11  C   UNL     1      -0.649 -17.250   2.328  0.00  0.00    +0.000 C 
ATOM     12  C   UNL     1      -0.835 -14.494   1.082  0.00  0.00    +0.000 C 
ATOM     13  C   UNL     1      -1.159 -18.641   2.561  0.00  0.00    +0.000 C 
ATOM     14  C   UNL     1      -2.095 -12.778  -0.321  0.00  0.00    +0.000 C 
ATOM     15  C   UNL     1       0.244 -18.882  -0.465  0.00  0.00    +0.000 C 
ATOM     16  C   UNL     1      -1.252 -13.087   0.774  0.00  0.00    +0.000 C 
ATOM     17  C   UNL     1      -3.831 -13.920  -1.698  0.00  0.00    +0.000 C 
ATOM     18  C   UNL     1      -1.470 -13.811  -2.609  0.00  0.00    +0.000 C 
ATOM     19  C   UNL     1      -3.101 -11.956  -0.117  0.00  0.00    +0.000 C 
ATOM     20  C   UNL     1      -4.861 -12.986  -1.387  0.00  0.00    +0.000 A 
ATOM     21  C   UNL     1      -4.442 -11.973  -0.568  0.00  0.00    +0.000 A 
ATOM     22  C   UNL     1      -6.203 -12.699  -1.617  0.00  0.00    +0.000 A 
ENDROOT
BRANCH   9  23
ATOM     23  O   UNL     1      -1.143 -20.693   1.367  0.00  0.00    +0.000 OA
ATOM     24  H   UNL     1      -1.521 -21.155   0.598  0.00  0.00    +0.000 HD
ENDBRANCH   9  23
BRANCH   9  25
ATOM     25  C   UNL     1      -3.149 -19.408   1.369  0.00  0.00    +0.000 C 
ATOM     26  C   UNL     1      -4.343 -19.464   1.392  0.00  0.00    +0.000 C 
ENDBRANCH   9  25
TORSDOF 2
ENDMDL
MODEL 4
REMARK VINA RESULT:      -4.9     13.149     15.312
REMARK  Name = Danazol.pdbqt.pdb
REMARK  2 active torsions:
REMARK  status: ('A' for Active; 'I' for Inactive)
REMARK    1  A    between atoms: C_9  and  O_23
REMARK    2  A    between atoms: C_9  and  C_25
REMARK                            x       y       z     vdW  Elec       q    Type
REMARK                         _______ _______ _______ _____ _____    ______ ____
ROOT
ATOM      1  O   UNL     1      -4.024  -9.501 -13.850  0.00  0.00    +0.000 OA
ATOM      2  N   UNL     1      -4.033  -9.523 -12.439  0.00  0.00    +0.000 NA
ATOM      3  C   UNL     1      -2.489 -16.506 -16.404  0.00  0.00    +0.000 C 
ATOM      4  C   UNL     1      -2.514 -17.711 -15.326  0.00  0.00    +0.000 C 
ATOM      5  C   UNL     1      -3.271 -15.266 -16.235  0.00  0.00    +0.000 C 
ATOM      6  C   UNL     1      -4.060 -14.871 -15.016  0.00  0.00    +0.000 C 
ATOM      7  C   UNL     1      -4.973 -13.625 -14.943  0.00  0.00    +0.000 C 
ATOM      8  C   UNL     1      -3.203 -17.155 -14.152  0.00  0.00    +0.000 C 
ATOM      9  C   UNL     1      -0.937 -18.081 -15.123  0.00  0.00    +0.000 C 
ATOM     10  C   UNL     1      -3.941 -15.850 -13.992  0.00  0.00    +0.000 C 
ATOM     11  C   UNL     1      -1.235 -16.508 -17.078  0.00  0.00    +0.000 C 
ATOM     12  C   UNL     1      -3.243 -14.243 -17.211  0.00  0.00    +0.000 C 
ATOM     13  C   UNL     1      -0.349 -17.457 -16.327  0.00  0.00    +0.000 C 
ATOM     14  C   UNL     1      -4.632 -12.442 -16.057  0.00  0.00    +0.000 C 
ATOM     15  C   UNL     1      -3.367 -18.857 -15.983  0.00  0.00    +0.000 C 
ATOM     16  C   UNL     1      -3.873 -12.883 -17.168  0.00  0.00    +0.000 C 
ATOM     17  C   UNL     1      -4.793 -12.931 -13.617  0.00  0.00    +0.000 C 
ATOM     18  C   UNL     1      -6.451 -14.053 -15.168  0.00  0.00    +0.000 C 
ATOM     19  C   UNL     1      -4.399 -11.237 -15.584  0.00  0.00    +0.000 C 
ATOM     20  C   UNL     1      -4.499 -11.597 -13.211  0.00  0.00    +0.000 A 
ATOM     21  C   UNL     1      -4.308 -10.742 -14.262  0.00  0.00    +0.000 A 
ATOM     22  C   UNL     1      -4.328 -10.793 -12.088  0.00  0.00    +0.000 A 
ENDROOT
BRANCH   9  23
ATOM     23  O   UNL     1      -0.640 -19.486 -15.129  0.00  0.00    +0.000 OA
ATOM     24  H   UNL     1      -0.521 -19.766 -14.205  0.00  0.00    +0.000 HD
ENDBRANCH   9  23
BRANCH   9  25
ATOM     25  C   UNL     1      -0.396 -17.469 -13.884  0.00  0.00    +0.000 C 
ATOM     26  C   UNL     1       0.065 -16.983 -12.894  0.00  0.00    +0.000 C 
ENDBRANCH   9  25
TORSDOF 2
ENDMDL
MODEL 5
REMARK VINA RESULT:      -4.7     11.283     13.153
REMARK  Name = Danazol.pdbqt.pdb
REMARK  2 active torsions:
REMARK  status: ('A' for Active; 'I' for Inactive)
REMARK    1  A    between atoms: C_9  and  O_23
REMARK    2  A    between atoms: C_9  and  C_25
REMARK                            x       y       z     vdW  Elec       q    Type
REMARK                         _______ _______ _______ _____ _____    ______ ____
ROOT
ATOM      1  O   UNL     1     -16.149  -5.146  -5.441  0.00  0.00    +0.000 OA
ATOM      2  N   UNL     1     -16.428  -5.837  -4.242  0.00  0.00    +0.000 NA
ATOM      3  C   UNL     1      -8.960  -2.654  -5.225  0.00  0.00    +0.000 C 
ATOM      4  C   UNL     1      -8.017  -3.211  -4.036  0.00  0.00    +0.000 C 
ATOM      5  C   UNL     1     -10.119  -3.405  -5.745  0.00  0.00    +0.000 C 
ATOM      6  C   UNL     1     -10.681  -4.680  -5.176  0.00  0.00    +0.000 C 
ATOM      7  C   UNL     1     -11.812  -5.499  -5.840  0.00  0.00    +0.000 C 
ATOM      8  C   UNL     1      -8.735  -4.376  -3.496  0.00  0.00    +0.000 C 
ATOM      9  C   UNL     1      -7.865  -1.934  -3.031  0.00  0.00    +0.000 C 
ATOM     10  C   UNL     1      -9.961  -5.083  -4.018  0.00  0.00    +0.000 C 
ATOM     11  C   UNL     1      -8.945  -1.230  -5.205  0.00  0.00    +0.000 C 
ATOM     12  C   UNL     1     -10.908  -2.896  -6.802  0.00  0.00    +0.000 C 
ATOM     13  C   UNL     1      -8.275  -0.830  -3.924  0.00  0.00    +0.000 C 
ATOM     14  C   UNL     1     -12.759  -4.648  -6.904  0.00  0.00    +0.000 C 
ATOM     15  C   UNL     1      -6.675  -3.655  -4.725  0.00  0.00    +0.000 C 
ATOM     16  C   UNL     1     -12.173  -3.451  -7.386  0.00  0.00    +0.000 C 
ATOM     17  C   UNL     1     -12.787  -5.973  -4.794  0.00  0.00    +0.000 C 
ATOM     18  C   UNL     1     -11.194  -6.689  -6.628  0.00  0.00    +0.000 C 
ATOM     19  C   UNL     1     -14.054  -4.658  -6.678  0.00  0.00    +0.000 C 
ATOM     20  C   UNL     1     -14.200  -5.897  -4.626  0.00  0.00    +0.000 A 
ATOM     21  C   UNL     1     -14.826  -5.211  -5.631  0.00  0.00    +0.000 A 
ATOM     22  C   UNL     1     -15.238  -6.280  -3.782  0.00  0.00    +0.000 A 
ENDROOT
BRANCH   9  23
ATOM     23  O   UNL     1      -6.529  -1.688  -2.564  0.00  0.00    +0.000 OA
ATOM     24  H   UNL     1      -6.019  -2.508  -2.686  0.00  0.00    +0.000 HD
ENDBRANCH   9  23
BRANCH   9  25
ATOM     25  C   UNL     1      -8.779  -2.052  -1.869  0.00  0.00    +0.000 C 
ATOM     26  C   UNL     1      -9.494  -2.154  -0.917  0.00  0.00    +0.000 C 
ENDBRANCH   9  25
TORSDOF 2
ENDMDL
MODEL 6
REMARK VINA RESULT:      -4.7     11.442     14.146
REMARK  Name = Danazol.pdbqt.pdb
REMARK  2 active torsions:
REMARK  status: ('A' for Active; 'I' for Inactive)
REMARK    1  A    between atoms: C_9  and  O_23
REMARK    2  A    between atoms: C_9  and  C_25
REMARK                            x       y       z     vdW  Elec       q    Type
REMARK                         _______ _______ _______ _____ _____    ______ ____
ROOT
ATOM      1  O   UNL     1     -15.600 -25.686   3.042  0.00  0.00    +0.000 OA
ATOM      2  N   UNL     1     -16.929 -25.953   2.650  0.00  0.00    +0.000 NA
ATOM      3  C   UNL     1     -13.540 -18.903   0.269  0.00  0.00    +0.000 C 
ATOM      4  C   UNL     1     -14.703 -17.977  -0.368  0.00  0.00    +0.000 C 
ATOM      5  C   UNL     1     -13.805 -19.920   1.305  0.00  0.00    +0.000 C 
ATOM      6  C   UNL     1     -15.158 -20.351   1.802  0.00  0.00    +0.000 C 
ATOM      7  C   UNL     1     -15.376 -21.322   2.986  0.00  0.00    +0.000 C 
ATOM      8  C   UNL     1     -15.963 -18.576   0.099  0.00  0.00    +0.000 C 
ATOM      9  C   UNL     1     -14.424 -18.056  -1.975  0.00  0.00    +0.000 C 
ATOM     10  C   UNL     1     -16.197 -19.664   1.117  0.00  0.00    +0.000 C 
ATOM     11  C   UNL     1     -12.500 -19.071  -0.688  0.00  0.00    +0.000 C 
ATOM     12  C   UNL     1     -12.759 -20.695   1.856  0.00  0.00    +0.000 C 
ATOM     13  C   UNL     1     -13.029 -18.544  -1.989  0.00  0.00    +0.000 C 
ATOM     14  C   UNL     1     -14.079 -22.297   3.338  0.00  0.00    +0.000 C 
ATOM     15  C   UNL     1     -14.502 -16.547   0.253  0.00  0.00    +0.000 C 
ATOM     16  C   UNL     1     -12.842 -21.837   2.824  0.00  0.00    +0.000 C 
ATOM     17  C   UNL     1     -16.478 -22.296   2.658  0.00  0.00    +0.000 C 
ATOM     18  C   UNL     1     -15.697 -20.507   4.271  0.00  0.00    +0.000 C 
ATOM     19  C   UNL     1     -14.303 -23.593   3.351  0.00  0.00    +0.000 C 
ATOM     20  C   UNL     1     -16.604 -23.716   2.674  0.00  0.00    +0.000 A 
ATOM     21  C   UNL     1     -15.454 -24.356   3.047  0.00  0.00    +0.000 A 
ATOM     22  C   UNL     1     -17.506 -24.750   2.443  0.00  0.00    +0.000 A 
ENDROOT
BRANCH   9  23
ATOM     23  O   UNL     1     -14.490 -16.797  -2.662  0.00  0.00    +0.000 OA
ATOM     24  H   UNL     1     -13.595 -16.415  -2.662  0.00  0.00    +0.000 HD
ENDBRANCH   9  23
BRANCH   9  25
ATOM     25  C   UNL     1     -15.337 -19.024  -2.632  0.00  0.00    +0.000 C 
ATOM     26  C   UNL     1     -16.069 -19.790  -3.185  0.00  0.00    +0.000 C 
ENDBRANCH   9  25
TORSDOF 2
ENDMDL
MODEL 7
REMARK VINA RESULT:      -4.5      9.854     12.306
REMARK  Name = Danazol.pdbqt.pdb
REMARK  2 active torsions:
REMARK  status: ('A' for Active; 'I' for Inactive)
REMARK    1  A    between atoms: C_9  and  O_23
REMARK    2  A    between atoms: C_9  and  C_25
REMARK                            x       y       z     vdW  Elec       q    Type
REMARK                         _______ _______ _______ _____ _____    ______ ____
ROOT
ATOM      1  O   UNL     1     -19.580 -19.197  -1.632  0.00  0.00    +0.000 OA
ATOM      2  N   UNL     1     -19.382 -20.526  -2.062  0.00  0.00    +0.000 NA
ATOM      3  C   UNL     1     -13.201 -16.719   1.702  0.00  0.00    +0.000 C 
ATOM      4  C   UNL     1     -11.878 -17.636   1.547  0.00  0.00    +0.000 C 
ATOM      5  C   UNL     1     -14.300 -16.728   0.717  0.00  0.00    +0.000 C 
ATOM      6  C   UNL     1     -14.437 -17.662  -0.455  0.00  0.00    +0.000 C 
ATOM      7  C   UNL     1     -15.538 -17.541  -1.535  0.00  0.00    +0.000 C 
ATOM      8  C   UNL     1     -12.191 -18.571   0.456  0.00  0.00    +0.000 C 
ATOM      9  C   UNL     1     -11.690 -18.298   3.027  0.00  0.00    +0.000 C 
ATOM     10  C   UNL     1     -13.362 -18.591  -0.495  0.00  0.00    +0.000 C 
ATOM     11  C   UNL     1     -13.444 -16.478   3.084  0.00  0.00    +0.000 C 
ATOM     12  C   UNL     1     -15.432 -15.895   0.874  0.00  0.00    +0.000 C 
ATOM     13  C   UNL     1     -12.529 -17.394   3.842  0.00  0.00    +0.000 C 
ATOM     14  C   UNL     1     -16.883 -16.688  -1.067  0.00  0.00    +0.000 C 
ATOM     15  C   UNL     1     -10.724 -16.655   1.126  0.00  0.00    +0.000 C 
ATOM     16  C   UNL     1     -16.685 -15.843   0.052  0.00  0.00    +0.000 C 
ATOM     17  C   UNL     1     -16.078 -18.905  -1.875  0.00  0.00    +0.000 C 
ATOM     18  C   UNL     1     -14.955 -16.826  -2.787  0.00  0.00    +0.000 C 
ATOM     19  C   UNL     1     -18.040 -17.304  -1.184  0.00  0.00    +0.000 C 
ATOM     20  C   UNL     1     -17.378 -19.487  -1.936  0.00  0.00    +0.000 A 
ATOM     21  C   UNL     1     -18.374 -18.621  -1.576  0.00  0.00    +0.000 A 
ATOM     22  C   UNL     1     -18.051 -20.666  -2.242  0.00  0.00    +0.000 A 
ENDROOT
BRANCH   9  23
ATOM     23  O   UNL     1     -10.346 -18.275   3.533  0.00  0.00    +0.000 OA
ATOM     24  H   UNL     1     -10.192 -17.396   3.920  0.00  0.00    +0.000 HD
ENDBRANCH   9  23
BRANCH   9  25
ATOM     25  C   UNL     1     -12.207 -19.688   3.064  0.00  0.00    +0.000 C 
ATOM     26  C   UNL     1     -12.632 -20.804   3.119  0.00  0.00    +0.000 C 
ENDBRANCH   9  25
TORSDOF 2
ENDMDL
MODEL 8
REMARK VINA RESULT:      -4.5     10.161     12.696
REMARK  Name = Danazol.pdbqt.pdb
REMARK  2 active torsions:
REMARK  status: ('A' for Active; 'I' for Inactive)
REMARK    1  A    between atoms: C_9  and  O_23
REMARK    2  A    between atoms: C_9  and  C_25
REMARK                            x       y       z     vdW  Elec       q    Type
REMARK                         _______ _______ _______ _____ _____    ______ ____
ROOT
ATOM      1  O   UNL     1     -13.877 -21.464   6.997  0.00  0.00    +0.000 OA
ATOM      2  N   UNL     1     -12.520 -21.242   7.314  0.00  0.00    +0.000 NA
ATOM      3  C   UNL     1     -15.172 -19.031  -0.098  0.00  0.00    +0.000 C 
ATOM      4  C   UNL     1     -13.884 -18.647  -0.998  0.00  0.00    +0.000 C 
ATOM      5  C   UNL     1     -15.112 -20.001   1.012  0.00  0.00    +0.000 C 
ATOM      6  C   UNL     1     -13.868 -20.645   1.564  0.00  0.00    +0.000 C 
ATOM      7  C   UNL     1     -13.873 -21.758   2.638  0.00  0.00    +0.000 C 
ATOM      8  C   UNL     1     -12.737 -19.233  -0.287  0.00  0.00    +0.000 C 
ATOM      9  C   UNL     1     -13.930 -17.017  -1.064  0.00  0.00    +0.000 C 
ATOM     10  C   UNL     1     -12.708 -20.175   0.890  0.00  0.00    +0.000 C 
ATOM     11  C   UNL     1     -16.069 -17.926  -0.071  0.00  0.00    +0.000 C 
ATOM     12  C   UNL     1     -16.264 -20.330   1.763  0.00  0.00    +0.000 C 
ATOM     13  C   UNL     1     -15.331 -16.763  -0.665  0.00  0.00    +0.000 C 
ATOM     14  C   UNL     1     -15.254 -21.837   3.555  0.00  0.00    +0.000 C 
ATOM     15  C   UNL     1     -14.103 -19.356  -2.384  0.00  0.00    +0.000 C 
ATOM     16  C   UNL     1     -16.380 -21.196   2.981  0.00  0.00    +0.000 C 
ATOM     17  C   UNL     1     -12.786 -21.505   3.648  0.00  0.00    +0.000 C 
ATOM     18  C   UNL     1     -13.703 -23.142   1.948  0.00  0.00    +0.000 C 
ATOM     19  C   UNL     1     -15.099 -21.769   4.859  0.00  0.00    +0.000 C 
ATOM     20  C   UNL     1     -12.733 -21.414   5.070  0.00  0.00    +0.000 A 
ATOM     21  C   UNL     1     -13.956 -21.565   5.666  0.00  0.00    +0.000 A 
ATOM     22  C   UNL     1     -11.860 -21.224   6.136  0.00  0.00    +0.000 A 
ENDROOT
BRANCH   9  23
ATOM     23  O   UNL     1     -13.703 -16.458  -2.367  0.00  0.00    +0.000 OA
ATOM     24  H   UNL     1     -12.751 -16.530  -2.556  0.00  0.00    +0.000 HD
ENDBRANCH   9  23
BRANCH   9  25
ATOM     25  C   UNL     1     -12.980 -16.413  -0.097  0.00  0.00    +0.000 C 
ATOM     26  C   UNL     1     -12.216 -15.949   0.696  0.00  0.00    +0.000 C 
ENDBRANCH   9  25
TORSDOF 2
ENDMDL
MODEL 9
REMARK VINA RESULT:      -4.5      9.343     12.060
REMARK  Name = Danazol.pdbqt.pdb
REMARK  2 active torsions:
REMARK  status: ('A' for Active; 'I' for Inactive)
REMARK    1  A    between atoms: C_9  and  O_23
REMARK    2  A    between atoms: C_9  and  C_25
REMARK                            x       y       z     vdW  Elec       q    Type
REMARK                         _______ _______ _______ _____ _____    ______ ____
ROOT
ATOM      1  O   UNL     1     -16.747 -22.156   5.401  0.00  0.00    +0.000 OA
ATOM      2  N   UNL     1     -17.194 -21.374   6.487  0.00  0.00    +0.000 NA
ATOM      3  C   UNL     1     -12.194 -17.907   1.025  0.00  0.00    +0.000 C 
ATOM      4  C   UNL     1     -11.723 -16.475   1.613  0.00  0.00    +0.000 C 
ATOM      5  C   UNL     1     -12.569 -19.042   1.889  0.00  0.00    +0.000 C 
ATOM      6  C   UNL     1     -12.718 -19.009   3.386  0.00  0.00    +0.000 C 
ATOM      7  C   UNL     1     -12.980 -20.260   4.258  0.00  0.00    +0.000 C 
ATOM      8  C   UNL     1     -12.032 -16.536   3.050  0.00  0.00    +0.000 C 
ATOM      9  C   UNL     1     -12.582 -15.397   0.740  0.00  0.00    +0.000 C 
ATOM     10  C   UNL     1     -12.477 -17.703   3.894  0.00  0.00    +0.000 C 
ATOM     11  C   UNL     1     -12.797 -17.712  -0.250  0.00  0.00    +0.000 C 
ATOM     12  C   UNL     1     -12.953 -20.287   1.339  0.00  0.00    +0.000 C 
ATOM     13  C   UNL     1     -12.991 -16.233  -0.408  0.00  0.00    +0.000 C 
ATOM     14  C   UNL     1     -13.632 -21.552   3.446  0.00  0.00    +0.000 C 
ATOM     15  C   UNL     1     -10.170 -16.406   1.379  0.00  0.00    +0.000 C 
ATOM     16  C   UNL     1     -13.468 -21.508   2.040  0.00  0.00    +0.000 C 
ATOM     17  C   UNL     1     -14.005 -19.946   5.315  0.00  0.00    +0.000 C 
ATOM     18  C   UNL     1     -11.641 -20.742   4.884  0.00  0.00    +0.000 C 
ATOM     19  C   UNL     1     -14.755 -22.042   3.925  0.00  0.00    +0.000 C 
ATOM     20  C   UNL     1     -15.233 -20.537   5.734  0.00  0.00    +0.000 A 
ATOM     21  C   UNL     1     -15.587 -21.630   4.992  0.00  0.00    +0.000 A 
ATOM     22  C   UNL     1     -16.260 -20.415   6.665  0.00  0.00    +0.000 A 
ENDROOT
BRANCH   9  23
ATOM     23  O   UNL     1     -11.829 -14.273   0.258  0.00  0.00    +0.000 OA
ATOM     24  H   UNL     1     -12.155 -14.060  -0.634  0.00  0.00    +0.000 HD
ENDBRANCH   9  23
BRANCH   9  25
ATOM     25  C   UNL     1     -13.762 -14.910   1.497  0.00  0.00    +0.000 C 
ATOM     26  C   UNL     1     -14.703 -14.493   2.104  0.00  0.00    +0.000 C 
ENDBRANCH   9  25
TORSDOF 2
ENDMDL
