MODEL 1
REMARK VINA RESULT:      -5.8      0.000      0.000
REMARK  Name = Dasatinib.pdbqt.pdb
REMARK  5 active torsions:
REMARK  status: ('A' for Active; 'I' for Inactive)
REMARK    1  A    between atoms: N_1  and  C_3
REMARK    2  A    between atoms: N_13  and  C_16
REMARK    3  A    between atoms: C_17  and  O_18
REMARK    4  A    between atoms: C_22  and  C_25
REMARK    5  A    between atoms: N_27  and  C_29
REMARK                            x       y       z     vdW  Elec       q    Type
REMARK                         _______ _______ _______ _____ _____    ______ ____
ROOT
ATOM      1  N   UNL     1     -10.037 -31.409  -0.704  0.00  0.00    +0.000 N 
ATOM      2  H   UNL     1      -9.662 -30.522  -1.017  0.00  0.00    +0.000 HD
ATOM      3  C   UNL     1      -9.417 -32.519  -1.169  0.00  0.00    +0.000 A 
ATOM      4  S   UNL     1      -8.164 -32.344  -2.348  0.00  0.00    +0.000 S 
ATOM      5  C   UNL     1      -7.961 -34.045  -2.396  0.00  0.00    +0.000 A 
ATOM      6  C   UNL     1      -8.859 -34.619  -1.529  0.00  0.00    +0.000 A 
ATOM      7  N   UNL     1      -9.698 -33.765  -0.859  0.00  0.00    +0.000 NA
ENDROOT
BRANCH   1   8
ATOM      8  C   UNL     1     -10.693 -31.321   0.543  0.00  0.00    +0.000 A 
ATOM      9  N   UNL     1     -12.026 -31.259   0.634  0.00  0.00    +0.000 NA
ATOM     10  C   UNL     1     -12.551 -31.120   1.856  0.00  0.00    +0.000 A 
ATOM     11  N   UNL     1     -11.855 -31.055   2.997  0.00  0.00    +0.000 NA
ATOM     12  C   UNL     1     -14.047 -31.070   1.967  0.00  0.00    +0.000 C 
ATOM     13  C   UNL     1     -10.516 -31.133   2.901  0.00  0.00    +0.000 A 
ATOM     14  C   UNL     1      -9.893 -31.256   1.669  0.00  0.00    +0.000 A 
ATOM     15  N   UNL     1      -9.710 -31.028   4.066  0.00  0.00    +0.000 N 
ATOM     16  C   UNL     1      -8.448 -31.814   4.121  0.00  0.00    +0.000 C 
ATOM     17  C   UNL     1      -7.954 -32.752   5.255  0.00  0.00    +0.000 C 
ATOM     18  N   UNL     1      -8.540 -33.151   6.566  0.00  0.00    +0.000 N 
ATOM     19  C   UNL     1      -9.784 -32.340   6.454  0.00  0.00    +0.000 C 
ATOM     20  C   UNL     1     -10.340 -31.388   5.363  0.00  0.00    +0.000 C 
BRANCH  18  21
ATOM     21  C   UNL     1      -7.723 -32.526   7.597  0.00  0.00    +0.000 C 
ATOM     22  C   UNL     1      -6.861 -31.867   8.681  0.00  0.00    +0.000 C 
BRANCH  22  23
ATOM     23  O   UNL     1      -6.113 -31.296   9.618  0.00  0.00    +0.000 OA
ATOM     24  H   UNL     1      -5.783 -31.964  10.242  0.00  0.00    +0.000 HD
ENDBRANCH  22  23
ENDBRANCH  18  21
ENDBRANCH   1   8
BRANCH   5  25
ATOM     25  C   UNL     1      -6.960 -34.655  -3.242  0.00  0.00    +0.000 C 
ATOM     26  O   UNL     1      -7.134 -35.721  -3.828  0.00  0.00    +0.000 OA
ATOM     27  N   UNL     1      -5.747 -33.979  -3.273  0.00  0.00    +0.000 N 
ATOM     28  H   UNL     1      -5.502 -33.475  -2.421  0.00  0.00    +0.000 HD
BRANCH  27  29
ATOM     29  C   UNL     1      -4.624 -34.394  -4.052  0.00  0.00    +0.000 A 
ATOM     30  C   UNL     1      -4.500 -33.875  -5.358  0.00  0.00    +0.000 A 
ATOM     31  C   UNL     1      -3.417 -34.204  -6.171  0.00  0.00    +0.000 A 
ATOM     32  C   UNL     1      -5.540 -32.923  -5.909  0.00  0.00    +0.000 C 
ATOM     33  C   UNL     1      -2.442 -35.077  -5.705  0.00  0.00    +0.000 A 
ATOM     34  C   UNL     1      -2.581 -35.653  -4.447  0.00  0.00    +0.000 A 
ATOM     35  C   UNL     1      -3.664 -35.327  -3.625  0.00  0.00    +0.000 A 
ATOM     36 CL   UNL     1      -3.851 -36.316  -2.220  0.00  0.00    +0.000 Cl
ENDBRANCH  27  29
ENDBRANCH   5  25
TORSDOF 5
ENDMDL
MODEL 2
REMARK VINA RESULT:      -5.7     15.941     18.782
REMARK  Name = Dasatinib.pdbqt.pdb
REMARK  5 active torsions:
REMARK  status: ('A' for Active; 'I' for Inactive)
REMARK    1  A    between atoms: N_1  and  C_3
REMARK    2  A    between atoms: N_13  and  C_16
REMARK    3  A    between atoms: C_17  and  O_18
REMARK    4  A    between atoms: C_22  and  C_25
REMARK    5  A    between atoms: N_27  and  C_29
REMARK                            x       y       z     vdW  Elec       q    Type
REMARK                         _______ _______ _______ _____ _____    ______ ____
ROOT
ATOM      1  N   UNL     1       0.918 -29.168 -16.152  0.00  0.00    +0.000 N 
ATOM      2  H   UNL     1       1.252 -28.315 -16.585  0.00  0.00    +0.000 HD
ATOM      3  C   UNL     1       1.304 -29.381 -14.872  0.00  0.00    +0.000 A 
ATOM      4  S   UNL     1       2.429 -28.287 -14.145  0.00  0.00    +0.000 S 
ATOM      5  C   UNL     1       2.393 -29.199 -12.696  0.00  0.00    +0.000 A 
ATOM      6  C   UNL     1       1.545 -30.267 -12.870  0.00  0.00    +0.000 A 
ATOM      7  N   UNL     1       0.954 -30.386 -14.102  0.00  0.00    +0.000 NA
ENDROOT
BRANCH   1   8
ATOM      8  C   UNL     1      -0.292 -29.633 -16.711  0.00  0.00    +0.000 A 
ATOM      9  N   UNL     1      -0.353 -30.778 -17.401  0.00  0.00    +0.000 NA
ATOM     10  C   UNL     1      -1.533 -31.105 -17.941  0.00  0.00    +0.000 A 
ATOM     11  N   UNL     1      -2.660 -30.392 -17.833  0.00  0.00    +0.000 NA
ATOM     12  C   UNL     1      -1.613 -32.397 -18.699  0.00  0.00    +0.000 C 
ATOM     13  C   UNL     1      -2.596 -29.251 -17.126  0.00  0.00    +0.000 A 
ATOM     14  C   UNL     1      -1.406 -28.829 -16.553  0.00  0.00    +0.000 A 
ATOM     15  N   UNL     1      -3.742 -28.421 -17.005  0.00  0.00    +0.000 N 
ATOM     16  C   UNL     1      -3.934 -27.667 -15.737  0.00  0.00    +0.000 C 
ATOM     17  C   UNL     1      -5.205 -27.598 -14.847  0.00  0.00    +0.000 C 
ATOM     18  N   UNL     1      -6.552 -28.224 -14.958  0.00  0.00    +0.000 N 
ATOM     19  C   UNL     1      -6.301 -28.954 -16.232  0.00  0.00    +0.000 C 
ATOM     20  C   UNL     1      -5.070 -29.068 -17.169  0.00  0.00    +0.000 C 
BRANCH  18  21
ATOM     21  C   UNL     1      -7.487 -27.151 -15.267  0.00  0.00    +0.000 C 
ATOM     22  C   UNL     1      -8.473 -26.022 -15.595  0.00  0.00    +0.000 C 
BRANCH  22  23
ATOM     23  O   UNL     1      -9.326 -25.045 -15.880  0.00  0.00    +0.000 OA
ATOM     24  H   UNL     1      -9.017 -24.539 -16.650  0.00  0.00    +0.000 HD
ENDBRANCH  22  23
ENDBRANCH  18  21
ENDBRANCH   1   8
BRANCH   5  25
ATOM     25  C   UNL     1       3.163 -28.799 -11.540  0.00  0.00    +0.000 C 
ATOM     26  O   UNL     1       3.131 -27.664 -11.070  0.00  0.00    +0.000 OA
ATOM     27  N   UNL     1       4.012 -29.783 -11.048  0.00  0.00    +0.000 N 
ATOM     28  H   UNL     1       4.375 -30.436 -11.741  0.00  0.00    +0.000 HD
BRANCH  27  29
ATOM     29  C   UNL     1       4.853 -29.611  -9.906  0.00  0.00    +0.000 A 
ATOM     30  C   UNL     1       4.403 -30.126  -8.673  0.00  0.00    +0.000 A 
ATOM     31  C   UNL     1       5.177 -30.029  -7.518  0.00  0.00    +0.000 A 
ATOM     32  C   UNL     1       3.061 -30.823  -8.573  0.00  0.00    +0.000 C 
ATOM     33  C   UNL     1       6.412 -29.395  -7.565  0.00  0.00    +0.000 A 
ATOM     34  C   UNL     1       6.844 -28.820  -8.755  0.00  0.00    +0.000 A 
ATOM     35  C   UNL     1       6.073 -28.913  -9.917  0.00  0.00    +0.000 A 
ATOM     36 CL   UNL     1       6.598 -27.927 -11.236  0.00  0.00    +0.000 Cl
ENDBRANCH  27  29
ENDBRANCH   5  25
TORSDOF 5
ENDMDL
MODEL 3
REMARK VINA RESULT:      -5.6      1.634      2.020
REMARK  Name = Dasatinib.pdbqt.pdb
REMARK  5 active torsions:
REMARK  status: ('A' for Active; 'I' for Inactive)
REMARK    1  A    between atoms: N_1  and  C_3
REMARK    2  A    between atoms: N_13  and  C_16
REMARK    3  A    between atoms: C_17  and  O_18
REMARK    4  A    between atoms: C_22  and  C_25
REMARK    5  A    between atoms: N_27  and  C_29
REMARK                            x       y       z     vdW  Elec       q    Type
REMARK                         _______ _______ _______ _____ _____    ______ ____
ROOT
ATOM      1  N   UNL     1      -9.799 -31.163  -0.580  0.00  0.00    +0.000 N 
ATOM      2  H   UNL     1      -9.293 -30.314  -0.802  0.00  0.00    +0.000 HD
ATOM      3  C   UNL     1      -9.415 -32.279  -1.242  0.00  0.00    +0.000 A 
ATOM      4  S   UNL     1      -8.227 -32.143  -2.492  0.00  0.00    +0.000 S 
ATOM      5  C   UNL     1      -8.331 -33.828  -2.786  0.00  0.00    +0.000 A 
ATOM      6  C   UNL     1      -9.261 -34.366  -1.929  0.00  0.00    +0.000 A 
ATOM      7  N   UNL     1      -9.892 -33.493  -1.080  0.00  0.00    +0.000 NA
ENDROOT
BRANCH   1   8
ATOM      8  C   UNL     1     -10.349 -31.152   0.720  0.00  0.00    +0.000 A 
ATOM      9  N   UNL     1     -11.573 -30.669   0.962  0.00  0.00    +0.000 NA
ATOM     10  C   UNL     1     -11.983 -30.649   2.235  0.00  0.00    +0.000 A 
ATOM     11  N   UNL     1     -11.279 -31.089   3.284  0.00  0.00    +0.000 NA
ATOM     12  C   UNL     1     -13.363 -30.126   2.510  0.00  0.00    +0.000 C 
ATOM     13  C   UNL     1     -10.056 -31.588   3.034  0.00  0.00    +0.000 A 
ATOM     14  C   UNL     1      -9.548 -31.623   1.744  0.00  0.00    +0.000 A 
ATOM     15  N   UNL     1      -9.235 -32.034   4.103  0.00  0.00    +0.000 N 
ATOM     16  C   UNL     1      -8.328 -33.189   3.859  0.00  0.00    +0.000 C 
ATOM     17  C   UNL     1      -8.166 -34.475   4.714  0.00  0.00    +0.000 C 
ATOM     18  N   UNL     1      -8.820 -34.947   5.966  0.00  0.00    +0.000 N 
ATOM     19  C   UNL     1      -9.702 -33.762   6.158  0.00  0.00    +0.000 C 
ATOM     20  C   UNL     1      -9.917 -32.452   5.355  0.00  0.00    +0.000 C 
BRANCH  18  21
ATOM     21  C   UNL     1      -7.809 -34.890   7.013  0.00  0.00    +0.000 C 
ATOM     22  C   UNL     1      -6.746 -34.830   8.117  0.00  0.00    +0.000 C 
BRANCH  22  23
ATOM     23  O   UNL     1      -5.827 -34.777   9.074  0.00  0.00    +0.000 OA
ATOM     24  H   UNL     1      -5.161 -34.099   8.867  0.00  0.00    +0.000 HD
ENDBRANCH  22  23
ENDBRANCH  18  21
ENDBRANCH   1   8
BRANCH   5  25
ATOM     25  C   UNL     1      -7.509 -34.465  -3.790  0.00  0.00    +0.000 C 
ATOM     26  O   UNL     1      -7.968 -35.155  -4.696  0.00  0.00    +0.000 OA
ATOM     27  N   UNL     1      -6.142 -34.301  -3.599  0.00  0.00    +0.000 N 
ATOM     28  H   UNL     1      -5.841 -34.211  -2.629  0.00  0.00    +0.000 HD
BRANCH  27  29
ATOM     29  C   UNL     1      -5.147 -34.831  -4.476  0.00  0.00    +0.000 A 
ATOM     30  C   UNL     1      -4.309 -35.852  -3.982  0.00  0.00    +0.000 A 
ATOM     31  C   UNL     1      -3.335 -36.445  -4.783  0.00  0.00    +0.000 A 
ATOM     32  C   UNL     1      -4.460 -36.350  -2.559  0.00  0.00    +0.000 C 
ATOM     33  C   UNL     1      -3.162 -36.015  -6.092  0.00  0.00    +0.000 A 
ATOM     34  C   UNL     1      -3.930 -34.963  -6.577  0.00  0.00    +0.000 A 
ATOM     35  C   UNL     1      -4.909 -34.364  -5.780  0.00  0.00    +0.000 A 
ATOM     36 CL   UNL     1      -5.589 -32.906  -6.412  0.00  0.00    +0.000 Cl
ENDBRANCH  27  29
ENDBRANCH   5  25
TORSDOF 5
ENDMDL
MODEL 4
REMARK VINA RESULT:      -5.2     23.766     25.269
REMARK  Name = Dasatinib.pdbqt.pdb
REMARK  5 active torsions:
REMARK  status: ('A' for Active; 'I' for Inactive)
REMARK    1  A    between atoms: N_1  and  C_3
REMARK    2  A    between atoms: N_13  and  C_16
REMARK    3  A    between atoms: C_17  and  O_18
REMARK    4  A    between atoms: C_22  and  C_25
REMARK    5  A    between atoms: N_27  and  C_29
REMARK                            x       y       z     vdW  Elec       q    Type
REMARK                         _______ _______ _______ _____ _____    ______ ____
ROOT
ATOM      1  N   UNL     1      -5.744 -12.507 -13.935  0.00  0.00    +0.000 N 
ATOM      2  H   UNL     1      -6.533 -11.944 -14.228  0.00  0.00    +0.000 HD
ATOM      3  C   UNL     1      -5.705 -13.775 -14.408  0.00  0.00    +0.000 A 
ATOM      4  S   UNL     1      -7.045 -14.367 -15.326  0.00  0.00    +0.000 S 
ATOM      5  C   UNL     1      -6.270 -15.886 -15.494  0.00  0.00    +0.000 A 
ATOM      6  C   UNL     1      -5.064 -15.838 -14.836  0.00  0.00    +0.000 A 
ATOM      7  N   UNL     1      -4.757 -14.662 -14.201  0.00  0.00    +0.000 NA
ENDROOT
BRANCH   1   8
ATOM      8  C   UNL     1      -4.606 -11.736 -13.615  0.00  0.00    +0.000 A 
ATOM      9  N   UNL     1      -3.659 -11.470 -14.522  0.00  0.00    +0.000 NA
ATOM     10  C   UNL     1      -2.591 -10.780 -14.108  0.00  0.00    +0.000 A 
ATOM     11  N   UNL     1      -2.398 -10.318 -12.867  0.00  0.00    +0.000 NA
ATOM     12  C   UNL     1      -1.535 -10.461 -15.125  0.00  0.00    +0.000 C 
ATOM     13  C   UNL     1      -3.360 -10.575 -11.963  0.00  0.00    +0.000 A 
ATOM     14  C   UNL     1      -4.488 -11.303 -12.307  0.00  0.00    +0.000 A 
ATOM     15  N   UNL     1      -3.205 -10.153 -10.616  0.00  0.00    +0.000 N 
ATOM     16  C   UNL     1      -4.420  -9.744  -9.862  0.00  0.00    +0.000 C 
ATOM     17  C   UNL     1      -4.645  -8.446  -9.040  0.00  0.00    +0.000 C 
ATOM     18  N   UNL     1      -3.783  -7.265  -8.758  0.00  0.00    +0.000 N 
ATOM     19  C   UNL     1      -2.594  -7.729  -9.527  0.00  0.00    +0.000 C 
ATOM     20  C   UNL     1      -2.299  -9.001 -10.365  0.00  0.00    +0.000 C 
BRANCH  18  21
ATOM     21  C   UNL     1      -3.423  -7.336  -7.349  0.00  0.00    +0.000 C 
ATOM     22  C   UNL     1      -3.043  -7.413  -5.864  0.00  0.00    +0.000 C 
BRANCH  22  23
ATOM     23  O   UNL     1      -2.713  -7.482  -4.580  0.00  0.00    +0.000 OA
ATOM     24  H   UNL     1      -1.928  -6.937  -4.401  0.00  0.00    +0.000 HD
ENDBRANCH  22  23
ENDBRANCH  18  21
ENDBRANCH   1   8
BRANCH   5  25
ATOM     25  C   UNL     1      -6.882 -16.960 -16.244  0.00  0.00    +0.000 C 
ATOM     26  O   UNL     1      -6.645 -18.147 -16.034  0.00  0.00    +0.000 OA
ATOM     27  N   UNL     1      -7.701 -16.537 -17.283  0.00  0.00    +0.000 N 
ATOM     28  H   UNL     1      -7.440 -15.653 -17.718  0.00  0.00    +0.000 HD
BRANCH  27  29
ATOM     29  C   UNL     1      -8.417 -17.424 -18.144  0.00  0.00    +0.000 A 
ATOM     30  C   UNL     1      -9.760 -17.713 -17.823  0.00  0.00    +0.000 A 
ATOM     31  C   UNL     1     -10.538 -18.543 -18.628  0.00  0.00    +0.000 A 
ATOM     32  C   UNL     1     -10.404 -17.108 -16.592  0.00  0.00    +0.000 C 
ATOM     33  C   UNL     1      -9.985 -19.121 -19.763  0.00  0.00    +0.000 A 
ATOM     34  C   UNL     1      -8.644 -18.905 -20.060  0.00  0.00    +0.000 A 
ATOM     35  C   UNL     1      -7.857 -18.073 -19.257  0.00  0.00    +0.000 A 
ATOM     36 CL   UNL     1      -6.161 -18.115 -19.586  0.00  0.00    +0.000 Cl
ENDBRANCH  27  29
ENDBRANCH   5  25
TORSDOF 5
ENDMDL
MODEL 5
REMARK VINA RESULT:      -5.2      9.802     12.371
REMARK  Name = Dasatinib.pdbqt.pdb
REMARK  5 active torsions:
REMARK  status: ('A' for Active; 'I' for Inactive)
REMARK    1  A    between atoms: N_1  and  C_3
REMARK    2  A    between atoms: N_13  and  C_16
REMARK    3  A    between atoms: C_17  and  O_18
REMARK    4  A    between atoms: C_22  and  C_25
REMARK    5  A    between atoms: N_27  and  C_29
REMARK                            x       y       z     vdW  Elec       q    Type
REMARK                         _______ _______ _______ _____ _____    ______ ____
ROOT
ATOM      1  N   UNL     1     -15.445 -35.920  -7.281  0.00  0.00    +0.000 N 
ATOM      2  H   UNL     1     -16.076 -35.149  -7.465  0.00  0.00    +0.000 HD
ATOM      3  C   UNL     1     -15.070 -36.655  -8.354  0.00  0.00    +0.000 A 
ATOM      4  S   UNL     1     -15.796 -36.325  -9.889  0.00  0.00    +0.000 S 
ATOM      5  C   UNL     1     -14.876 -37.581 -10.604  0.00  0.00    +0.000 A 
ATOM      6  C   UNL     1     -14.098 -38.163  -9.632  0.00  0.00    +0.000 A 
ATOM      7  N   UNL     1     -14.227 -37.663  -8.361  0.00  0.00    +0.000 NA
ENDROOT
BRANCH   1   8
ATOM      8  C   UNL     1     -14.652 -35.722  -6.130  0.00  0.00    +0.000 A 
ATOM      9  N   UNL     1     -15.190 -35.675  -4.906  0.00  0.00    +0.000 NA
ATOM     10  C   UNL     1     -14.364 -35.426  -3.884  0.00  0.00    +0.000 A 
ATOM     11  N   UNL     1     -13.043 -35.237  -3.981  0.00  0.00    +0.000 NA
ATOM     12  C   UNL     1     -14.958 -35.391  -2.505  0.00  0.00    +0.000 C 
ATOM     13  C   UNL     1     -12.506 -35.300  -5.211  0.00  0.00    +0.000 A 
ATOM     14  C   UNL     1     -13.297 -35.532  -6.326  0.00  0.00    +0.000 A 
ATOM     15  N   UNL     1     -11.117 -35.068  -5.397  0.00  0.00    +0.000 N 
ATOM     16  C   UNL     1     -10.415 -35.822  -6.469  0.00  0.00    +0.000 C 
ATOM     17  C   UNL     1      -9.097 -36.636  -6.361  0.00  0.00    +0.000 C 
ATOM     18  N   UNL     1      -8.170 -36.915  -5.228  0.00  0.00    +0.000 N 
ATOM     19  C   UNL     1      -8.917 -36.140  -4.198  0.00  0.00    +0.000 C 
ATOM     20  C   UNL     1     -10.226 -35.310  -4.232  0.00  0.00    +0.000 C 
BRANCH  18  21
ATOM     21  C   UNL     1      -6.944 -36.177  -5.500  0.00  0.00    +0.000 C 
ATOM     22  C   UNL     1      -5.654 -35.398  -5.787  0.00  0.00    +0.000 C 
BRANCH  22  23
ATOM     23  O   UNL     1      -4.538 -34.723  -6.037  0.00  0.00    +0.000 OA
ATOM     24  H   UNL     1      -4.566 -34.342  -6.931  0.00  0.00    +0.000 HD
ENDBRANCH  22  23
ENDBRANCH  18  21
ENDBRANCH   1   8
BRANCH   5  25
ATOM     25  C   UNL     1     -14.978 -37.872 -12.016  0.00  0.00    +0.000 C 
ATOM     26  O   UNL     1     -15.121 -39.009 -12.460  0.00  0.00    +0.000 OA
ATOM     27  N   UNL     1     -14.816 -36.767 -12.842  0.00  0.00    +0.000 N 
ATOM     28  H   UNL     1     -14.204 -36.035 -12.483  0.00  0.00    +0.000 HD
BRANCH  27  29
ATOM     29  C   UNL     1     -14.893 -36.820 -14.268  0.00  0.00    +0.000 A 
ATOM     30  C   UNL     1     -13.688 -36.953 -14.988  0.00  0.00    +0.000 A 
ATOM     31  C   UNL     1     -13.679 -37.045 -16.379  0.00  0.00    +0.000 A 
ATOM     32  C   UNL     1     -12.360 -37.018 -14.262  0.00  0.00    +0.000 C 
ATOM     33  C   UNL     1     -14.874 -36.986 -17.084  0.00  0.00    +0.000 A 
ATOM     34  C   UNL     1     -16.067 -36.786 -16.397  0.00  0.00    +0.000 A 
ATOM     35  C   UNL     1     -16.084 -36.693 -15.003  0.00  0.00    +0.000 A 
ATOM     36 CL   UNL     1     -17.582 -36.176 -14.313  0.00  0.00    +0.000 Cl
ENDBRANCH  27  29
ENDBRANCH   5  25
TORSDOF 5
ENDMDL
MODEL 6
REMARK VINA RESULT:      -5.1     17.096     21.412
REMARK  Name = Dasatinib.pdbqt.pdb
REMARK  5 active torsions:
REMARK  status: ('A' for Active; 'I' for Inactive)
REMARK    1  A    between atoms: N_1  and  C_3
REMARK    2  A    between atoms: N_13  and  C_16
REMARK    3  A    between atoms: C_17  and  O_18
REMARK    4  A    between atoms: C_22  and  C_25
REMARK    5  A    between atoms: N_27  and  C_29
REMARK                            x       y       z     vdW  Elec       q    Type
REMARK                         _______ _______ _______ _____ _____    ______ ____
ROOT
ATOM      1  N   UNL     1      -8.318 -28.255 -18.151  0.00  0.00    +0.000 N 
ATOM      2  H   UNL     1      -8.571 -29.184 -18.465  0.00  0.00    +0.000 HD
ATOM      3  C   UNL     1      -9.266 -27.298 -18.288  0.00  0.00    +0.000 A 
ATOM      4  S   UNL     1     -10.737 -27.690 -19.108  0.00  0.00    +0.000 S 
ATOM      5  C   UNL     1     -11.300 -26.088 -18.882  0.00  0.00    +0.000 A 
ATOM      6  C   UNL     1     -10.334 -25.373 -18.215  0.00  0.00    +0.000 A 
ATOM      7  N   UNL     1      -9.178 -26.044 -17.906  0.00  0.00    +0.000 NA
ENDROOT
BRANCH   1   8
ATOM      8  C   UNL     1      -7.331 -28.265 -17.142  0.00  0.00    +0.000 A 
ATOM      9  N   UNL     1      -7.630 -28.542 -15.868  0.00  0.00    +0.000 NA
ATOM     10  C   UNL     1      -6.635 -28.470 -14.976  0.00  0.00    +0.000 A 
ATOM     11  N   UNL     1      -5.363 -28.162 -15.254  0.00  0.00    +0.000 NA
ATOM     12  C   UNL     1      -6.960 -28.799 -13.548  0.00  0.00    +0.000 C 
ATOM     13  C   UNL     1      -5.066 -27.900 -16.538  0.00  0.00    +0.000 A 
ATOM     14  C   UNL     1      -6.043 -27.931 -17.521  0.00  0.00    +0.000 A 
ATOM     15  N   UNL     1      -3.745 -27.523 -16.903  0.00  0.00    +0.000 N 
ATOM     16  C   UNL     1      -3.231 -27.955 -18.230  0.00  0.00    +0.000 C 
ATOM     17  C   UNL     1      -1.890 -28.667 -18.552  0.00  0.00    +0.000 C 
ATOM     18  N   UNL     1      -0.757 -29.125 -17.699  0.00  0.00    +0.000 N 
ATOM     19  C   UNL     1      -1.323 -28.667 -16.399  0.00  0.00    +0.000 C 
ATOM     20  C   UNL     1      -2.643 -27.956 -16.004  0.00  0.00    +0.000 C 
BRANCH  18  21
ATOM     21  C   UNL     1       0.370 -28.252 -17.995  0.00  0.00    +0.000 C 
ATOM     22  C   UNL     1       1.558 -27.332 -18.306  0.00  0.00    +0.000 C 
BRANCH  22  23
ATOM     23  O   UNL     1       2.587 -26.537 -18.573  0.00  0.00    +0.000 OA
ATOM     24  H   UNL     1       2.775 -25.959 -17.814  0.00  0.00    +0.000 HD
ENDBRANCH  22  23
ENDBRANCH  18  21
ENDBRANCH   1   8
BRANCH   5  25
ATOM     25  C   UNL     1     -12.606 -25.681 -19.348  0.00  0.00    +0.000 C 
ATOM     26  O   UNL     1     -12.785 -24.725 -20.099  0.00  0.00    +0.000 OA
ATOM     27  N   UNL     1     -13.659 -26.409 -18.809  0.00  0.00    +0.000 N 
ATOM     28  H   UNL     1     -13.508 -26.770 -17.867  0.00  0.00    +0.000 HD
BRANCH  27  29
ATOM     29  C   UNL     1     -15.031 -26.189 -19.139  0.00  0.00    +0.000 A 
ATOM     30  C   UNL     1     -15.638 -27.070 -20.058  0.00  0.00    +0.000 A 
ATOM     31  C   UNL     1     -16.981 -26.945 -20.409  0.00  0.00    +0.000 A 
ATOM     32  C   UNL     1     -14.843 -28.201 -20.679  0.00  0.00    +0.000 C 
ATOM     33  C   UNL     1     -17.744 -25.920 -19.865  0.00  0.00    +0.000 A 
ATOM     34  C   UNL     1     -17.148 -24.998 -19.011  0.00  0.00    +0.000 A 
ATOM     35  C   UNL     1     -15.802 -25.119 -18.654  0.00  0.00    +0.000 A 
ATOM     36 CL   UNL     1     -15.134 -23.763 -17.816  0.00  0.00    +0.000 Cl
ENDBRANCH  27  29
ENDBRANCH   5  25
TORSDOF 5
ENDMDL
MODEL 7
REMARK VINA RESULT:      -5.0     17.133     21.883
REMARK  Name = Dasatinib.pdbqt.pdb
REMARK  5 active torsions:
REMARK  status: ('A' for Active; 'I' for Inactive)
REMARK    1  A    between atoms: N_1  and  C_3
REMARK    2  A    between atoms: N_13  and  C_16
REMARK    3  A    between atoms: C_17  and  O_18
REMARK    4  A    between atoms: C_22  and  C_25
REMARK    5  A    between atoms: N_27  and  C_29
REMARK                            x       y       z     vdW  Elec       q    Type
REMARK                         _______ _______ _______ _____ _____    ______ ____
ROOT
ATOM      1  N   UNL     1      -9.202 -27.844 -17.969  0.00  0.00    +0.000 N 
ATOM      2  H   UNL     1      -9.680 -28.732 -18.064  0.00  0.00    +0.000 HD
ATOM      3  C   UNL     1      -9.931 -26.738 -18.246  0.00  0.00    +0.000 A 
ATOM      4  S   UNL     1     -11.532 -26.927 -18.872  0.00  0.00    +0.000 S 
ATOM      5  C   UNL     1     -11.710 -25.225 -18.954  0.00  0.00    +0.000 A 
ATOM      6  C   UNL     1     -10.546 -24.640 -18.515  0.00  0.00    +0.000 A 
ATOM      7  N   UNL     1      -9.535 -25.489 -18.144  0.00  0.00    +0.000 NA
ENDROOT
BRANCH   1   8
ATOM      8  C   UNL     1      -8.136 -27.890 -17.044  0.00  0.00    +0.000 A 
ATOM      9  N   UNL     1      -8.337 -28.172 -15.752  0.00  0.00    +0.000 NA
ATOM     10  C   UNL     1      -7.272 -28.135 -14.944  0.00  0.00    +0.000 A 
ATOM     11  N   UNL     1      -6.020 -27.857 -15.322  0.00  0.00    +0.000 NA
ATOM     12  C   UNL     1      -7.488 -28.471 -13.497  0.00  0.00    +0.000 C 
ATOM     13  C   UNL     1      -5.820 -27.588 -16.624  0.00  0.00    +0.000 A 
ATOM     14  C   UNL     1      -6.875 -27.584 -17.524  0.00  0.00    +0.000 A 
ATOM     15  N   UNL     1      -4.525 -27.242 -17.092  0.00  0.00    +0.000 N 
ATOM     16  C   UNL     1      -4.132 -27.672 -18.460  0.00  0.00    +0.000 C 
ATOM     17  C   UNL     1      -2.840 -28.415 -18.896  0.00  0.00    +0.000 C 
ATOM     18  N   UNL     1      -1.654 -28.910 -18.142  0.00  0.00    +0.000 N 
ATOM     19  C   UNL     1      -2.100 -28.452 -16.797  0.00  0.00    +0.000 C 
ATOM     20  C   UNL     1      -3.365 -27.712 -16.289  0.00  0.00    +0.000 C 
BRANCH  18  21
ATOM     21  C   UNL     1      -0.532 -28.063 -18.523  0.00  0.00    +0.000 C 
ATOM     22  C   UNL     1       0.649 -27.171 -18.925  0.00  0.00    +0.000 C 
BRANCH  22  23
ATOM     23  O   UNL     1       1.673 -26.401 -19.274  0.00  0.00    +0.000 OA
ATOM     24  H   UNL     1       1.949 -26.596 -20.185  0.00  0.00    +0.000 HD
ENDBRANCH  22  23
ENDBRANCH  18  21
ENDBRANCH   1   8
BRANCH   5  25
ATOM     25  C   UNL     1     -12.941 -24.623 -19.414  0.00  0.00    +0.000 C 
ATOM     26  O   UNL     1     -13.617 -25.088 -20.328  0.00  0.00    +0.000 OA
ATOM     27  N   UNL     1     -13.258 -23.422 -18.791  0.00  0.00    +0.000 N 
ATOM     28  H   UNL     1     -12.463 -22.863 -18.483  0.00  0.00    +0.000 HD
BRANCH  27  29
ATOM     29  C   UNL     1     -14.434 -22.662 -19.078  0.00  0.00    +0.000 A 
ATOM     30  C   UNL     1     -14.290 -21.492 -19.852  0.00  0.00    +0.000 A 
ATOM     31  C   UNL     1     -15.391 -20.713 -20.203  0.00  0.00    +0.000 A 
ATOM     32  C   UNL     1     -12.925 -21.057 -20.343  0.00  0.00    +0.000 C 
ATOM     33  C   UNL     1     -16.660 -21.075 -19.771  0.00  0.00    +0.000 A 
ATOM     34  C   UNL     1     -16.815 -22.186 -18.949  0.00  0.00    +0.000 A 
ATOM     35  C   UNL     1     -15.715 -22.973 -18.593  0.00  0.00    +0.000 A 
ATOM     36 CL   UNL     1     -16.013 -24.146 -17.359  0.00  0.00    +0.000 Cl
ENDBRANCH  27  29
ENDBRANCH   5  25
TORSDOF 5
ENDMDL
MODEL 8
REMARK VINA RESULT:      -5.0     15.901     18.501
REMARK  Name = Dasatinib.pdbqt.pdb
REMARK  5 active torsions:
REMARK  status: ('A' for Active; 'I' for Inactive)
REMARK    1  A    between atoms: N_1  and  C_3
REMARK    2  A    between atoms: N_13  and  C_16
REMARK    3  A    between atoms: C_17  and  O_18
REMARK    4  A    between atoms: C_22  and  C_25
REMARK    5  A    between atoms: N_27  and  C_29
REMARK                            x       y       z     vdW  Elec       q    Type
REMARK                         _______ _______ _______ _____ _____    ______ ____
ROOT
ATOM      1  N   UNL     1     -14.920 -20.255  -0.437  0.00  0.00    +0.000 N 
ATOM      2  H   UNL     1     -15.753 -20.815  -0.307  0.00  0.00    +0.000 HD
ATOM      3  C   UNL     1     -15.021 -19.225  -1.310  0.00  0.00    +0.000 A 
ATOM      4  S   UNL     1     -16.477 -19.044  -2.225  0.00  0.00    +0.000 S 
ATOM      5  C   UNL     1     -15.825 -17.666  -3.007  0.00  0.00    +0.000 A 
ATOM      6  C   UNL     1     -14.555 -17.451  -2.528  0.00  0.00    +0.000 A 
ATOM      7  N   UNL     1     -14.090 -18.342  -1.596  0.00  0.00    +0.000 NA
ENDROOT
BRANCH   1   8
ATOM      8  C   UNL     1     -14.064 -20.271   0.686  0.00  0.00    +0.000 A 
ATOM      9  N   UNL     1     -13.889 -21.376   1.420  0.00  0.00    +0.000 NA
ATOM     10  C   UNL     1     -13.104 -21.277   2.498  0.00  0.00    +0.000 A 
ATOM     11  N   UNL     1     -12.464 -20.170   2.894  0.00  0.00    +0.000 NA
ATOM     12  C   UNL     1     -12.888 -22.518   3.315  0.00  0.00    +0.000 C 
ATOM     13  C   UNL     1     -12.632 -19.067   2.144  0.00  0.00    +0.000 A 
ATOM     14  C   UNL     1     -13.447 -19.081   1.023  0.00  0.00    +0.000 A 
ATOM     15  N   UNL     1     -12.018 -17.845   2.526  0.00  0.00    +0.000 N 
ATOM     16  C   UNL     1     -11.558 -16.923   1.453  0.00  0.00    +0.000 C 
ATOM     17  C   UNL     1     -10.169 -16.247   1.302  0.00  0.00    +0.000 C 
ATOM     18  N   UNL     1      -8.924 -16.299   2.119  0.00  0.00    +0.000 N 
ATOM     19  C   UNL     1      -9.442 -17.223   3.167  0.00  0.00    +0.000 C 
ATOM     20  C   UNL     1     -10.806 -17.931   3.382  0.00  0.00    +0.000 C 
BRANCH  18  21
ATOM     21  C   UNL     1      -8.781 -14.993   2.748  0.00  0.00    +0.000 C 
ATOM     22  C   UNL     1      -8.629 -13.617   3.409  0.00  0.00    +0.000 C 
BRANCH  22  23
ATOM     23  O   UNL     1      -8.495 -12.426   3.981  0.00  0.00    +0.000 OA
ATOM     24  H   UNL     1      -8.149 -12.521   4.884  0.00  0.00    +0.000 HD
ENDBRANCH  22  23
ENDBRANCH  18  21
ENDBRANCH   1   8
BRANCH   5  25
ATOM     25  C   UNL     1     -16.593 -16.925  -3.982  0.00  0.00    +0.000 C 
ATOM     26  O   UNL     1     -17.060 -17.434  -4.997  0.00  0.00    +0.000 OA
ATOM     27  N   UNL     1     -16.691 -15.564  -3.719  0.00  0.00    +0.000 N 
ATOM     28  H   UNL     1     -15.899 -15.153  -3.228  0.00  0.00    +0.000 HD
BRANCH  27  29
ATOM     29  C   UNL     1     -17.414 -14.645  -4.540  0.00  0.00    +0.000 A 
ATOM     30  C   UNL     1     -16.719 -14.013  -5.592  0.00  0.00    +0.000 A 
ATOM     31  C   UNL     1     -17.359 -13.129  -6.458  0.00  0.00    +0.000 A 
ATOM     32  C   UNL     1     -15.248 -14.297  -5.822  0.00  0.00    +0.000 C 
ATOM     33  C   UNL     1     -18.705 -12.839  -6.280  0.00  0.00    +0.000 A 
ATOM     34  C   UNL     1     -19.392 -13.398  -5.208  0.00  0.00    +0.000 A 
ATOM     35  C   UNL     1     -18.757 -14.287  -4.335  0.00  0.00    +0.000 A 
ATOM     36 CL   UNL     1     -19.645 -14.683  -2.906  0.00  0.00    +0.000 Cl
ENDBRANCH  27  29
ENDBRANCH   5  25
TORSDOF 5
ENDMDL
MODEL 9
REMARK VINA RESULT:      -4.9     22.855     25.702
REMARK  Name = Dasatinib.pdbqt.pdb
REMARK  5 active torsions:
REMARK  status: ('A' for Active; 'I' for Inactive)
REMARK    1  A    between atoms: N_1  and  C_3
REMARK    2  A    between atoms: N_13  and  C_16
REMARK    3  A    between atoms: C_17  and  O_18
REMARK    4  A    between atoms: C_22  and  C_25
REMARK    5  A    between atoms: N_27  and  C_29
REMARK                            x       y       z     vdW  Elec       q    Type
REMARK                         _______ _______ _______ _____ _____    ______ ____
ROOT
ATOM      1  N   UNL     1      -8.393 -11.963 -15.586  0.00  0.00    +0.000 N 
ATOM      2  H   UNL     1      -8.197 -11.456 -16.440  0.00  0.00    +0.000 HD
ATOM      3  C   UNL     1      -9.557 -12.652 -15.552  0.00  0.00    +0.000 A 
ATOM      4  S   UNL     1     -10.661 -12.493 -16.873  0.00  0.00    +0.000 S 
ATOM      5  C   UNL     1     -11.757 -13.558 -16.098  0.00  0.00    +0.000 A 
ATOM      6  C   UNL     1     -11.215 -13.946 -14.896  0.00  0.00    +0.000 A 
ATOM      7  N   UNL     1      -9.991 -13.415 -14.574  0.00  0.00    +0.000 NA
ENDROOT
BRANCH   1   8
ATOM      8  C   UNL     1      -7.224 -12.331 -14.883  0.00  0.00    +0.000 A 
ATOM      9  N   UNL     1      -6.838 -11.687 -13.776  0.00  0.00    +0.000 NA
ATOM     10  C   UNL     1      -5.687 -12.072 -13.214  0.00  0.00    +0.000 A 
ATOM     11  N   UNL     1      -4.898 -13.058 -13.656  0.00  0.00    +0.000 NA
ATOM     12  C   UNL     1      -5.258 -11.367 -11.960  0.00  0.00    +0.000 C 
ATOM     13  C   UNL     1      -5.299 -13.712 -14.761  0.00  0.00    +0.000 A 
ATOM     14  C   UNL     1      -6.469 -13.360 -15.416  0.00  0.00    +0.000 A 
ATOM     15  N   UNL     1      -4.492 -14.742 -15.313  0.00  0.00    +0.000 N 
ATOM     16  C   UNL     1      -5.171 -15.894 -15.965  0.00  0.00    +0.000 C 
ATOM     17  C   UNL     1      -4.930 -17.408 -15.724  0.00  0.00    +0.000 C 
ATOM     18  N   UNL     1      -4.010 -18.155 -14.820  0.00  0.00    +0.000 N 
ATOM     19  C   UNL     1      -3.365 -16.962 -14.205  0.00  0.00    +0.000 C 
ATOM     20  C   UNL     1      -3.551 -15.434 -14.394  0.00  0.00    +0.000 C 
BRANCH  18  21
ATOM     21  C   UNL     1      -3.007 -18.782 -15.670  0.00  0.00    +0.000 C 
ATOM     22  C   UNL     1      -1.950 -19.444 -16.563  0.00  0.00    +0.000 C 
BRANCH  22  23
ATOM     23  O   UNL     1      -1.035 -20.018 -17.335  0.00  0.00    +0.000 OA
ATOM     24  H   UNL     1      -1.274 -20.943 -17.514  0.00  0.00    +0.000 HD
ENDBRANCH  22  23
ENDBRANCH  18  21
ENDBRANCH   1   8
BRANCH   5  25
ATOM     25  C   UNL     1     -13.010 -13.925 -16.718  0.00  0.00    +0.000 C 
ATOM     26  O   UNL     1     -13.741 -13.117 -17.286  0.00  0.00    +0.000 OA
ATOM     27  N   UNL     1     -13.364 -15.258 -16.548  0.00  0.00    +0.000 N 
ATOM     28  H   UNL     1     -13.038 -15.693 -15.685  0.00  0.00    +0.000 HD
BRANCH  27  29
ATOM     29  C   UNL     1     -14.551 -15.841 -17.088  0.00  0.00    +0.000 A 
ATOM     30  C   UNL     1     -15.557 -16.243 -16.185  0.00  0.00    +0.000 A 
ATOM     31  C   UNL     1     -16.759 -16.790 -16.631  0.00  0.00    +0.000 A 
ATOM     32  C   UNL     1     -15.365 -16.071 -14.692  0.00  0.00    +0.000 C 
ATOM     33  C   UNL     1     -16.974 -16.968 -17.992  0.00  0.00    +0.000 A 
ATOM     34  C   UNL     1     -15.967 -16.642 -18.895  0.00  0.00    +0.000 A 
ATOM     35  C   UNL     1     -14.760 -16.093 -18.454  0.00  0.00    +0.000 A 
ATOM     36 CL   UNL     1     -13.512 -15.996 -19.646  0.00  0.00    +0.000 Cl
ENDBRANCH  27  29
ENDBRANCH   5  25
TORSDOF 5
ENDMDL
