MODEL 1
REMARK VINA RESULT:      -4.5      0.000      0.000
REMARK  Name = Decitabine.pdbqt.pdb
REMARK  4 active torsions:
REMARK  status: ('A' for Active; 'I' for Inactive)
REMARK    1  A    between atoms: N_2  and  C1*_8
REMARK    2  A    between atoms: C4*_10  and  C5*_13
REMARK    3  A    between atoms: C3*_11  and  O3*_16
REMARK    4  A    between atoms: C5*_13  and  O5*_14
REMARK                            x       y       z     vdW  Elec       q    Type
REMARK                         _______ _______ _______ _____ _____    ______ ____
ROOT
ATOM      1  O   UNL     1      -5.281 -35.439  -8.691  0.00  0.00    +0.000 OA
ATOM      2  N   UNL     1      -4.010 -33.693  -7.857  0.00  0.00    +0.000 N 
ATOM      3  N   UNL     1      -6.039 -34.306  -6.856  0.00  0.00    +0.000 NA
ATOM      4  N   UNL     1      -4.758 -32.493  -5.996  0.00  0.00    +0.000 NA
ATOM      5  C   UNL     1      -5.110 -34.545  -7.869  0.00  0.00    +0.000 A 
ATOM      6  C   UNL     1      -4.055 -32.796  -6.876  0.00  0.00    +0.000 A 
ATOM      7  C   UNL     1      -5.846 -33.349  -5.985  0.00  0.00    +0.000 A 
ATOM      8  N   UNL     1      -6.777 -33.161  -5.015  0.00  0.00    +0.000 N 
ATOM      9  H   UNL     1      -6.815 -32.218  -4.650  0.00  0.00    +0.000 HD
ATOM     10  H   UNL     1      -7.677 -33.568  -5.239  0.00  0.00    +0.000 HD
ENDROOT
BRANCH   2  11
ATOM     11  C1* UNL     1      -2.967 -33.712  -8.728  0.00  0.00    +0.000 A 
ATOM     12  O4* UNL     1      -2.652 -32.614  -9.536  0.00  0.00    +0.000 OA
ATOM     13  C4* UNL     1      -1.531 -32.975 -10.293  0.00  0.00    +0.000 A 
ATOM     14  C3* UNL     1      -1.144 -34.321  -9.955  0.00  0.00    +0.000 A 
ATOM     15  C2* UNL     1      -2.047 -34.753  -8.967  0.00  0.00    +0.000 A 
BRANCH  14  16
ATOM     16  O3* UNL     1       0.160 -34.720 -10.030  0.00  0.00    +0.000 OA
ATOM     17  H3* UNL     1       0.732 -33.988 -10.318  0.00  0.00    +0.000 HD
ENDBRANCH  14  16
BRANCH  13  18
ATOM     18  C5* UNL     1      -0.830 -32.054 -11.096  0.00  0.00    +0.000 C 
BRANCH  18  19
ATOM     19  O5* UNL     1      -0.172 -31.181 -11.853  0.00  0.00    +0.000 OA
ATOM     20  H5* UNL     1       0.649 -31.580 -12.190  0.00  0.00    +0.000 HD
ENDBRANCH  18  19
ENDBRANCH  13  18
ENDBRANCH   2  11
TORSDOF 4
ENDMDL
MODEL 2
REMARK VINA RESULT:      -4.2     28.454     29.531
REMARK  Name = Decitabine.pdbqt.pdb
REMARK  4 active torsions:
REMARK  status: ('A' for Active; 'I' for Inactive)
REMARK    1  A    between atoms: N_2  and  C1*_8
REMARK    2  A    between atoms: C4*_10  and  C5*_13
REMARK    3  A    between atoms: C3*_11  and  O3*_16
REMARK    4  A    between atoms: C5*_13  and  O5*_14
REMARK                            x       y       z     vdW  Elec       q    Type
REMARK                         _______ _______ _______ _____ _____    ______ ____
ROOT
ATOM      1  O   UNL     1     -14.234  -5.023  -7.177  0.00  0.00    +0.000 OA
ATOM      2  N   UNL     1     -13.328  -5.731  -5.167  0.00  0.00    +0.000 N 
ATOM      3  N   UNL     1     -15.626  -5.319  -5.387  0.00  0.00    +0.000 NA
ATOM      4  N   UNL     1     -14.711  -6.025  -3.306  0.00  0.00    +0.000 NA
ATOM      5  C   UNL     1     -14.372  -5.338  -5.999  0.00  0.00    +0.000 A 
ATOM      6  C   UNL     1     -13.725  -6.011  -3.930  0.00  0.00    +0.000 A 
ATOM      7  C   UNL     1     -15.760  -5.657  -4.131  0.00  0.00    +0.000 A 
ATOM      8  N   UNL     1     -17.001  -5.627  -3.583  0.00  0.00    +0.000 N 
ATOM      9  H   UNL     1     -17.014  -5.485  -2.582  0.00  0.00    +0.000 HD
ATOM     10  H   UNL     1     -17.655  -5.053  -4.102  0.00  0.00    +0.000 HD
ENDROOT
BRANCH   2  11
ATOM     11  C1* UNL     1     -12.018  -5.835  -5.513  0.00  0.00    +0.000 A 
ATOM     12  O4* UNL     1     -11.057  -4.921  -5.068  0.00  0.00    +0.000 OA
ATOM     13  C4* UNL     1      -9.829  -5.330  -5.602  0.00  0.00    +0.000 A 
ATOM     14  C3* UNL     1     -10.029  -6.514  -6.397  0.00  0.00    +0.000 A 
ATOM     15  C2* UNL     1     -11.400  -6.816  -6.314  0.00  0.00    +0.000 A 
BRANCH  14  16
ATOM     16  O3* UNL     1      -9.043  -7.450  -6.528  0.00  0.00    +0.000 OA
ATOM     17  H3* UNL     1      -9.238  -8.240  -5.993  0.00  0.00    +0.000 HD
ENDBRANCH  14  16
BRANCH  13  18
ATOM     18  C5* UNL     1      -8.605  -4.742  -5.226  0.00  0.00    +0.000 C 
BRANCH  18  19
ATOM     19  O5* UNL     1      -7.450  -4.190  -4.867  0.00  0.00    +0.000 OA
ATOM     20  H5* UNL     1      -7.284  -3.387  -5.390  0.00  0.00    +0.000 HD
ENDBRANCH  18  19
ENDBRANCH  13  18
ENDBRANCH   2  11
TORSDOF 4
ENDMDL
MODEL 3
REMARK VINA RESULT:      -4.1      2.488      3.813
REMARK  Name = Decitabine.pdbqt.pdb
REMARK  4 active torsions:
REMARK  status: ('A' for Active; 'I' for Inactive)
REMARK    1  A    between atoms: N_2  and  C1*_8
REMARK    2  A    between atoms: C4*_10  and  C5*_13
REMARK    3  A    between atoms: C3*_11  and  O3*_16
REMARK    4  A    between atoms: C5*_13  and  O5*_14
REMARK                            x       y       z     vdW  Elec       q    Type
REMARK                         _______ _______ _______ _____ _____    ______ ____
ROOT
ATOM      1  O   UNL     1      -4.782 -35.466  -4.339  0.00  0.00    +0.000 OA
ATOM      2  N   UNL     1      -5.877 -35.028  -6.331  0.00  0.00    +0.000 N 
ATOM      3  N   UNL     1      -6.765 -36.525  -4.760  0.00  0.00    +0.000 NA
ATOM      4  N   UNL     1      -7.895 -36.104  -6.813  0.00  0.00    +0.000 NA
ATOM      5  C   UNL     1      -5.731 -35.649  -5.095  0.00  0.00    +0.000 A 
ATOM      6  C   UNL     1      -6.982 -35.396  -6.973  0.00  0.00    +0.000 A 
ATOM      7  C   UNL     1      -7.771 -36.711  -5.575  0.00  0.00    +0.000 A 
ATOM      8  N   UNL     1      -8.754 -37.569  -5.201  0.00  0.00    +0.000 N 
ATOM      9  H   UNL     1      -9.258 -37.989  -5.971  0.00  0.00    +0.000 HD
ATOM     10  H   UNL     1      -8.467 -38.216  -4.476  0.00  0.00    +0.000 HD
ENDROOT
BRANCH   2  11
ATOM     11  C1* UNL     1      -5.018 -34.135  -6.891  0.00  0.00    +0.000 A 
ATOM     12  O4* UNL     1      -4.302 -34.424  -8.058  0.00  0.00    +0.000 OA
ATOM     13  C4* UNL     1      -3.530 -33.293  -8.351  0.00  0.00    +0.000 A 
ATOM     14  C3* UNL     1      -3.765 -32.287  -7.347  0.00  0.00    +0.000 A 
ATOM     15  C2* UNL     1      -4.706 -32.832  -6.457  0.00  0.00    +0.000 A 
BRANCH  14  16
ATOM     16  O3* UNL     1      -3.671 -30.957  -7.647  0.00  0.00    +0.000 OA
ATOM     17  H3* UNL     1      -3.028 -30.513  -7.068  0.00  0.00    +0.000 HD
ENDBRANCH  14  16
BRANCH  13  18
ATOM     18  C5* UNL     1      -2.809 -33.158  -9.554  0.00  0.00    +0.000 C 
BRANCH  18  19
ATOM     19  O5* UNL     1      -2.125 -33.029 -10.687  0.00  0.00    +0.000 OA
ATOM     20  H5* UNL     1      -1.218 -33.361 -10.572  0.00  0.00    +0.000 HD
ENDBRANCH  18  19
ENDBRANCH  13  18
ENDBRANCH   2  11
TORSDOF 4
ENDMDL
MODEL 4
REMARK VINA RESULT:      -3.8     12.785     13.480
REMARK  Name = Decitabine.pdbqt.pdb
REMARK  4 active torsions:
REMARK  status: ('A' for Active; 'I' for Inactive)
REMARK    1  A    between atoms: N_2  and  C1*_8
REMARK    2  A    between atoms: C4*_10  and  C5*_13
REMARK    3  A    between atoms: C3*_11  and  O3*_16
REMARK    4  A    between atoms: C5*_13  and  O5*_14
REMARK                            x       y       z     vdW  Elec       q    Type
REMARK                         _______ _______ _______ _____ _____    ______ ____
ROOT
ATOM      1  O   UNL     1       4.809 -35.924   1.992  0.00  0.00    +0.000 OA
ATOM      2  N   UNL     1       3.961 -34.015   2.991  0.00  0.00    +0.000 N 
ATOM      3  N   UNL     1       4.047 -36.055   4.144  0.00  0.00    +0.000 NA
ATOM      4  N   UNL     1       3.151 -34.108   5.181  0.00  0.00    +0.000 NA
ATOM      5  C   UNL     1       4.311 -35.362   2.962  0.00  0.00    +0.000 A 
ATOM      6  C   UNL     1       3.428 -33.639   4.149  0.00  0.00    +0.000 A 
ATOM      7  C   UNL     1       3.516 -35.443   5.171  0.00  0.00    +0.000 A 
ATOM      8  N   UNL     1       3.283 -36.160   6.300  0.00  0.00    +0.000 N 
ATOM      9  H   UNL     1       2.536 -35.799   6.879  0.00  0.00    +0.000 HD
ATOM     10  H   UNL     1       3.251 -37.160   6.140  0.00  0.00    +0.000 HD
ENDROOT
BRANCH   2  11
ATOM     11  C1* UNL     1       4.114 -33.122   1.978  0.00  0.00    +0.000 A 
ATOM     12  O4* UNL     1       5.157 -32.189   1.962  0.00  0.00    +0.000 OA
ATOM     13  C4* UNL     1       5.016 -31.443   0.785  0.00  0.00    +0.000 A 
ATOM     14  C3* UNL     1       3.863 -31.915   0.060  0.00  0.00    +0.000 A 
ATOM     15  C2* UNL     1       3.328 -32.971   0.819  0.00  0.00    +0.000 A 
BRANCH  14  16
ATOM     16  O3* UNL     1       3.811 -31.845  -1.303  0.00  0.00    +0.000 OA
ATOM     17  H3* UNL     1       4.663 -32.099  -1.699  0.00  0.00    +0.000 HD
ENDBRANCH  14  16
BRANCH  13  18
ATOM     18  C5* UNL     1       5.989 -30.523   0.349  0.00  0.00    +0.000 C 
BRANCH  18  19
ATOM     19  O5* UNL     1       6.906 -29.650  -0.059  0.00  0.00    +0.000 OA
ATOM     20  H5* UNL     1       7.508 -29.429   0.671  0.00  0.00    +0.000 HD
ENDBRANCH  18  19
ENDBRANCH  13  18
ENDBRANCH   2  11
TORSDOF 4
ENDMDL
MODEL 5
REMARK VINA RESULT:      -3.7      8.531      9.364
REMARK  Name = Decitabine.pdbqt.pdb
REMARK  4 active torsions:
REMARK  status: ('A' for Active; 'I' for Inactive)
REMARK    1  A    between atoms: N_2  and  C1*_8
REMARK    2  A    between atoms: C4*_10  and  C5*_13
REMARK    3  A    between atoms: C3*_11  and  O3*_16
REMARK    4  A    between atoms: C5*_13  and  O5*_14
REMARK                            x       y       z     vdW  Elec       q    Type
REMARK                         _______ _______ _______ _____ _____    ______ ____
ROOT
ATOM      1  O   UNL     1      -8.456 -31.319 -17.138  0.00  0.00    +0.000 OA
ATOM      2  N   UNL     1      -7.706 -30.705 -15.036  0.00  0.00    +0.000 N 
ATOM      3  N   UNL     1      -8.804 -32.746 -15.385  0.00  0.00    +0.000 NA
ATOM      4  N   UNL     1      -8.059 -32.123 -13.212  0.00  0.00    +0.000 NA
ATOM      5  C   UNL     1      -8.324 -31.560 -15.942  0.00  0.00    +0.000 A 
ATOM      6  C   UNL     1      -7.694 -31.180 -13.794  0.00  0.00    +0.000 A 
ATOM      7  C   UNL     1      -8.656 -32.992 -14.109  0.00  0.00    +0.000 A 
ATOM      8  N   UNL     1      -9.135 -34.163 -13.617  0.00  0.00    +0.000 N 
ATOM      9  H   UNL     1      -9.375 -34.137 -12.635  0.00  0.00    +0.000 HD
ATOM     10  H   UNL     1      -9.832 -34.593 -14.214  0.00  0.00    +0.000 HD
ENDROOT
BRANCH   2  11
ATOM     11  C1* UNL     1      -7.155 -29.494 -15.317  0.00  0.00    +0.000 A 
ATOM     12  O4* UNL     1      -7.907 -28.441 -15.848  0.00  0.00    +0.000 OA
ATOM     13  C4* UNL     1      -7.034 -27.357 -16.004  0.00  0.00    +0.000 A 
ATOM     14  C3* UNL     1      -5.717 -27.743 -15.568  0.00  0.00    +0.000 A 
ATOM     15  C2* UNL     1      -5.822 -29.076 -15.132  0.00  0.00    +0.000 A 
BRANCH  14  16
ATOM     16  O3* UNL     1      -4.854 -26.828 -15.037  0.00  0.00    +0.000 OA
ATOM     17  H3* UNL     1      -3.935 -27.144 -15.086  0.00  0.00    +0.000 HD
ENDBRANCH  14  16
BRANCH  13  18
ATOM     18  C5* UNL     1      -7.481 -26.068 -16.356  0.00  0.00    +0.000 C 
BRANCH  18  19
ATOM     19  O5* UNL     1      -7.905 -24.851 -16.684  0.00  0.00    +0.000 OA
ATOM     20  H5* UNL     1      -7.914 -24.276 -15.899  0.00  0.00    +0.000 HD
ENDBRANCH  18  19
ENDBRANCH  13  18
ENDBRANCH   2  11
TORSDOF 4
ENDMDL
MODEL 6
REMARK VINA RESULT:      -3.7     21.689     23.010
REMARK  Name = Decitabine.pdbqt.pdb
REMARK  4 active torsions:
REMARK  status: ('A' for Active; 'I' for Inactive)
REMARK    1  A    between atoms: N_2  and  C1*_8
REMARK    2  A    between atoms: C4*_10  and  C5*_13
REMARK    3  A    between atoms: C3*_11  and  O3*_16
REMARK    4  A    between atoms: C5*_13  and  O5*_14
REMARK                            x       y       z     vdW  Elec       q    Type
REMARK                         _______ _______ _______ _____ _____    ______ ____
ROOT
ATOM      1  O   UNL     1     -18.571 -14.574 -12.040  0.00  0.00    +0.000 OA
ATOM      2  N   UNL     1     -17.235 -14.958 -10.188  0.00  0.00    +0.000 N 
ATOM      3  N   UNL     1     -17.966 -12.798 -10.733  0.00  0.00    +0.000 NA
ATOM      4  N   UNL     1     -16.575 -13.168  -8.837  0.00  0.00    +0.000 NA
ATOM      5  C   UNL     1     -17.967 -14.155 -11.057  0.00  0.00    +0.000 A 
ATOM      6  C   UNL     1     -16.660 -14.272  -9.204  0.00  0.00    +0.000 A 
ATOM      7  C   UNL     1     -17.318 -12.363  -9.683  0.00  0.00    +0.000 A 
ATOM      8  N   UNL     1     -17.352 -11.035  -9.408  0.00  0.00    +0.000 N 
ATOM      9  H   UNL     1     -16.555 -10.695  -8.886  0.00  0.00    +0.000 HD
ATOM     10  H   UNL     1     -17.612 -10.466 -10.205  0.00  0.00    +0.000 HD
ENDROOT
BRANCH   2  11
ATOM     11  C1* UNL     1     -17.077 -16.305 -10.276  0.00  0.00    +0.000 A 
ATOM     12  O4* UNL     1     -18.016 -17.199  -9.751  0.00  0.00    +0.000 OA
ATOM     13  C4* UNL     1     -17.545 -18.489 -10.022  0.00  0.00    +0.000 A 
ATOM     14  C3* UNL     1     -16.289 -18.397 -10.722  0.00  0.00    +0.000 A 
ATOM     15  C2* UNL     1     -16.027 -17.024 -10.880  0.00  0.00    +0.000 A 
BRANCH  14  16
ATOM     16  O3* UNL     1     -15.906 -19.359 -11.613  0.00  0.00    +0.000 OA
ATOM     17  H3* UNL     1     -15.144 -19.862 -11.278  0.00  0.00    +0.000 HD
ENDBRANCH  14  16
BRANCH  13  18
ATOM     18  C5* UNL     1     -18.317 -19.644  -9.789  0.00  0.00    +0.000 C 
BRANCH  18  19
ATOM     19  O5* UNL     1     -19.049 -20.732  -9.565  0.00  0.00    +0.000 OA
ATOM     20  H5* UNL     1     -19.687 -20.862 -10.287  0.00  0.00    +0.000 HD
ENDBRANCH  18  19
ENDBRANCH  13  18
ENDBRANCH   2  11
TORSDOF 4
ENDMDL
MODEL 7
REMARK VINA RESULT:      -3.6     10.066     11.178
REMARK  Name = Decitabine.pdbqt.pdb
REMARK  4 active torsions:
REMARK  status: ('A' for Active; 'I' for Inactive)
REMARK    1  A    between atoms: N_2  and  C1*_8
REMARK    2  A    between atoms: C4*_10  and  C5*_13
REMARK    3  A    between atoms: C3*_11  and  O3*_16
REMARK    4  A    between atoms: C5*_13  and  O5*_14
REMARK                            x       y       z     vdW  Elec       q    Type
REMARK                         _______ _______ _______ _____ _____    ______ ____
ROOT
ATOM      1  O   UNL     1      -7.950 -30.047 -17.549  0.00  0.00    +0.000 OA
ATOM      2  N   UNL     1      -7.742 -27.796 -17.047  0.00  0.00    +0.000 N 
ATOM      3  N   UNL     1      -9.677 -28.640 -18.068  0.00  0.00    +0.000 NA
ATOM      4  N   UNL     1      -9.474 -26.319 -17.579  0.00  0.00    +0.000 NA
ATOM      5  C   UNL     1      -8.411 -28.909 -17.547  0.00  0.00    +0.000 A 
ATOM      6  C   UNL     1      -8.441 -26.671 -17.166  0.00  0.00    +0.000 A 
ATOM      7  C   UNL     1     -10.157 -27.423 -18.059  0.00  0.00    +0.000 A 
ATOM      8  N   UNL     1     -11.396 -27.214 -18.572  0.00  0.00    +0.000 N 
ATOM      9  H   UNL     1     -11.552 -26.277 -18.920  0.00  0.00    +0.000 HD
ATOM     10  H   UNL     1     -11.703 -27.954 -19.191  0.00  0.00    +0.000 HD
ENDROOT
BRANCH   2  11
ATOM     11  C1* UNL     1      -6.504 -27.784 -16.487  0.00  0.00    +0.000 A 
ATOM     12  O4* UNL     1      -5.342 -27.949 -17.249  0.00  0.00    +0.000 OA
ATOM     13  C4* UNL     1      -4.261 -27.877 -16.362  0.00  0.00    +0.000 A 
ATOM     14  C3* UNL     1      -4.758 -27.670 -15.025  0.00  0.00    +0.000 A 
ATOM     15  C2* UNL     1      -6.158 -27.603 -15.133  0.00  0.00    +0.000 A 
BRANCH  14  16
ATOM     16  O3* UNL     1      -4.025 -26.985 -14.099  0.00  0.00    +0.000 OA
ATOM     17  H3* UNL     1      -4.440 -27.033 -13.220  0.00  0.00    +0.000 HD
ENDBRANCH  14  16
BRANCH  13  18
ATOM     18  C5* UNL     1      -2.923 -27.830 -16.800  0.00  0.00    +0.000 C 
BRANCH  18  19
ATOM     19  O5* UNL     1      -1.660 -27.791 -17.215  0.00  0.00    +0.000 OA
ATOM     20  H5* UNL     1      -1.578 -27.201 -17.984  0.00  0.00    +0.000 HD
ENDBRANCH  18  19
ENDBRANCH  13  18
ENDBRANCH   2  11
TORSDOF 4
ENDMDL
MODEL 8
REMARK VINA RESULT:      -3.5     13.978     14.817
REMARK  Name = Decitabine.pdbqt.pdb
REMARK  4 active torsions:
REMARK  status: ('A' for Active; 'I' for Inactive)
REMARK    1  A    between atoms: N_2  and  C1*_8
REMARK    2  A    between atoms: C4*_10  and  C5*_13
REMARK    3  A    between atoms: C3*_11  and  O3*_16
REMARK    4  A    between atoms: C5*_13  and  O5*_14
REMARK                            x       y       z     vdW  Elec       q    Type
REMARK                         _______ _______ _______ _____ _____    ______ ____
ROOT
ATOM      1  O   UNL     1       5.224 -37.186   3.546  0.00  0.00    +0.000 OA
ATOM      2  N   UNL     1       4.928 -35.003   4.258  0.00  0.00    +0.000 N 
ATOM      3  N   UNL     1       6.241 -36.513   5.480  0.00  0.00    +0.000 NA
ATOM      4  N   UNL     1       5.931 -34.278   6.241  0.00  0.00    +0.000 NA
ATOM      5  C   UNL     1       5.442 -36.292   4.358  0.00  0.00    +0.000 A 
ATOM      6  C   UNL     1       5.294 -34.216   5.265  0.00  0.00    +0.000 A 
ATOM      7  C   UNL     1       6.465 -35.551   6.339  0.00  0.00    +0.000 A 
ATOM      8  N   UNL     1       7.255 -35.815   7.411  0.00  0.00    +0.000 N 
ATOM      9  H   UNL     1       7.073 -35.231   8.217  0.00  0.00    +0.000 HD
ATOM     10  H   UNL     1       7.341 -36.804   7.612  0.00  0.00    +0.000 HD
ENDROOT
BRANCH   2  11
ATOM     11  C1* UNL     1       4.127 -34.529   3.268  0.00  0.00    +0.000 A 
ATOM     12  O4* UNL     1       4.623 -33.739   2.225  0.00  0.00    +0.000 OA
ATOM     13  C4* UNL     1       3.538 -33.439   1.391  0.00  0.00    +0.000 A 
ATOM     14  C3* UNL     1       2.347 -34.048   1.927  0.00  0.00    +0.000 A 
ATOM     15  C2* UNL     1       2.744 -34.732   3.089  0.00  0.00    +0.000 A 
BRANCH  14  16
ATOM     16  O3* UNL     1       1.332 -34.451   1.107  0.00  0.00    +0.000 OA
ATOM     17  H3* UNL     1       1.126 -33.769   0.444  0.00  0.00    +0.000 HD
ENDBRANCH  14  16
BRANCH  13  18
ATOM     18  C5* UNL     1       3.693 -32.801   0.145  0.00  0.00    +0.000 C 
BRANCH  18  19
ATOM     19  O5* UNL     1       3.835 -32.201  -1.033  0.00  0.00    +0.000 OA
ATOM     20  H5* UNL     1       3.271 -31.410  -1.078  0.00  0.00    +0.000 HD
ENDBRANCH  18  19
ENDBRANCH  13  18
ENDBRANCH   2  11
TORSDOF 4
ENDMDL
MODEL 9
REMARK VINA RESULT:      -3.2     21.821     22.886
REMARK  Name = Decitabine.pdbqt.pdb
REMARK  4 active torsions:
REMARK  status: ('A' for Active; 'I' for Inactive)
REMARK    1  A    between atoms: N_2  and  C1*_8
REMARK    2  A    between atoms: C4*_10  and  C5*_13
REMARK    3  A    between atoms: C3*_11  and  O3*_16
REMARK    4  A    between atoms: C5*_13  and  O5*_14
REMARK                            x       y       z     vdW  Elec       q    Type
REMARK                         _______ _______ _______ _____ _____    ______ ____
ROOT
ATOM      1  O   UNL     1     -17.858 -15.343  -9.221  0.00  0.00    +0.000 OA
ATOM      2  N   UNL     1     -17.241 -16.392 -11.190  0.00  0.00    +0.000 N 
ATOM      3  N   UNL     1     -17.797 -17.628  -9.278  0.00  0.00    +0.000 NA
ATOM      4  N   UNL     1     -17.145 -18.725 -11.288  0.00  0.00    +0.000 NA
ATOM      5  C   UNL     1     -17.647 -16.369  -9.860  0.00  0.00    +0.000 A 
ATOM      6  C   UNL     1     -17.065 -17.623 -11.661  0.00  0.00    +0.000 A 
ATOM      7  C   UNL     1     -17.570 -18.715  -9.970  0.00  0.00    +0.000 A 
ATOM      8  N   UNL     1     -17.736 -19.916  -9.360  0.00  0.00    +0.000 N 
ATOM      9  H   UNL     1     -17.182 -20.665  -9.753  0.00  0.00    +0.000 HD
ATOM     10  H   UNL     1     -17.718 -19.857  -8.349  0.00  0.00    +0.000 HD
ENDROOT
BRANCH   2  11
ATOM     11  C1* UNL     1     -17.023 -15.311 -11.985  0.00  0.00    +0.000 A 
ATOM     12  O4* UNL     1     -15.877 -14.518 -11.862  0.00  0.00    +0.000 OA
ATOM     13  C4* UNL     1     -15.975 -13.510 -12.830  0.00  0.00    +0.000 A 
ATOM     14  C3* UNL     1     -17.205 -13.675 -13.562  0.00  0.00    +0.000 A 
ATOM     15  C2* UNL     1     -17.832 -14.813 -13.025  0.00  0.00    +0.000 A 
BRANCH  14  16
ATOM     16  O3* UNL     1     -17.304 -13.288 -14.868  0.00  0.00    +0.000 OA
ATOM     17  H3* UNL     1     -17.719 -12.411 -14.942  0.00  0.00    +0.000 HD
ENDBRANCH  14  16
BRANCH  13  18
ATOM     18  C5* UNL     1     -14.916 -12.625 -13.113  0.00  0.00    +0.000 C 
BRANCH  18  19
ATOM     19  O5* UNL     1     -13.914 -11.793 -13.378  0.00  0.00    +0.000 OA
ATOM     20  H5* UNL     1     -13.336 -12.170 -14.063  0.00  0.00    +0.000 HD
ENDBRANCH  18  19
ENDBRANCH  13  18
ENDBRANCH   2  11
TORSDOF 4
ENDMDL
