MODEL 1
REMARK VINA RESULT:      -4.5      0.000      0.000
REMARK  Name = Deferoxamine.pdbqt.pdb
REMARK  19 active torsions:
REMARK  status: ('A' for Active; 'I' for Inactive)
REMARK    1  A    between atoms: C_1  and  C_2
REMARK    2  A    between atoms: C_3  and  C_4
REMARK    3  A    between atoms: C_4  and  N_5
REMARK    4  A    between atoms: C_6  and  C_9
REMARK    5  A    between atoms: C_10  and  C_11
REMARK    6  A    between atoms: N_13  and  O_14
REMARK    7  A    between atoms: N_13  and  C_16
REMARK    8  A    between atoms: C_17  and  C_18
REMARK    9  A    between atoms: C_19  and  C_20
REMARK   10  A    between atoms: C_20  and  N_21
REMARK   11  A    between atoms: C_24  and  N_25
REMARK   12  A    between atoms: N_25  and  O_28
REMARK   13  A    between atoms: C_26  and  C_30
REMARK   14  A    between atoms: C_31  and  C_32
REMARK   15  A    between atoms: N_34  and  C_36
REMARK   16  A    between atoms: C_37  and  C_38
REMARK   17  A    between atoms: C_38  and  C_39
REMARK   18  A    between atoms: C_40  and  N_41
REMARK   19  A    between atoms: N_41  and  O_45
REMARK                            x       y       z     vdW  Elec       q    Type
REMARK                         _______ _______ _______ _____ _____    ______ ____
ROOT
ATOM      1  C   UNL     1     -14.044 -21.971   1.728  0.00  0.00    +0.000 C 
ATOM      2  C   UNL     1     -14.509 -21.111   1.030  0.00  0.00    +0.000 C 
ENDROOT
BRANCH   2   3
ATOM      3  N   UNL     1     -15.033 -20.147   0.246  0.00  0.00    +0.000 N 
ATOM      4  C   UNL     1     -14.758 -18.792   0.176  0.00  0.00    +0.000 C 
ATOM      5  O   UNL     1     -14.068 -18.175   0.980  0.00  0.00    +0.000 OA
BRANCH   4   6
ATOM      6  C   UNL     1     -15.361 -18.044  -0.908  0.00  0.00    +0.000 C 
ATOM      7  C   UNL     1     -15.853 -17.412  -1.804  0.00  0.00    +0.000 C 
BRANCH   7   8
ATOM      8  C   UNL     1     -16.439 -16.635  -2.867  0.00  0.00    +0.000 C 
ATOM      9  O   UNL     1     -17.649 -16.460  -2.876  0.00  0.00    +0.000 OA
ATOM     10  N   UNL     1     -15.549 -16.149  -3.798  0.00  0.00    +0.000 N 
ATOM     11  H   UNL     1     -14.575 -16.379  -3.647  0.00  0.00    +0.000 HD
BRANCH  10  12
ATOM     12  C   UNL     1     -15.790 -15.399  -4.895  0.00  0.00    +0.000 C 
ATOM     13  C   UNL     1     -16.007 -14.729  -5.867  0.00  0.00    +0.000 C 
BRANCH  13  14
ATOM     14  C   UNL     1     -16.290 -13.867  -7.101  0.00  0.00    +0.000 C 
BRANCH  14  15
ATOM     15  C   UNL     1     -16.575 -12.999  -8.330  0.00  0.00    +0.000 C 
ATOM     16  C   UNL     1     -16.794 -12.317  -9.293  0.00  0.00    +0.000 C 
BRANCH  16  17
ATOM     17  N   UNL     1     -17.034 -11.552 -10.376  0.00  0.00    +0.000 N 
ATOM     18  C   UNL     1     -16.290 -11.327 -11.510  0.00  0.00    +0.000 C 
ATOM     19  O   UNL     1     -15.204 -11.773 -11.836  0.00  0.00    +0.000 OA
ATOM     20  C   UNL     1     -16.826 -10.398 -12.570  0.00  0.00    +0.000 C 
BRANCH  17  21
ATOM     21  O   UNL     1     -18.289 -10.906 -10.224  0.00  0.00    +0.000 OA
ATOM     22  H   UNL     1     -18.413 -10.459 -11.087  0.00  0.00    +0.000 HD
ENDBRANCH  17  21
ENDBRANCH  16  17
ENDBRANCH  14  15
ENDBRANCH  13  14
ENDBRANCH  10  12
ENDBRANCH   7   8
ENDBRANCH   4   6
BRANCH   3  23
ATOM     23  O   UNL     1     -15.665 -20.742  -0.869  0.00  0.00    +0.000 OA
ATOM     24  H   UNL     1     -16.435 -20.156  -0.991  0.00  0.00    +0.000 HD
ENDBRANCH   3  23
ENDBRANCH   2   3
BRANCH   1  25
ATOM     25  C   UNL     1     -13.451 -23.077   2.605  0.00  0.00    +0.000 C 
ATOM     26  C   UNL     1     -12.988 -23.936   3.303  0.00  0.00    +0.000 C 
BRANCH  26  27
ATOM     27  C   UNL     1     -12.401 -25.025   4.207  0.00  0.00    +0.000 C 
BRANCH  27  28
ATOM     28  N   UNL     1     -11.893 -25.979   5.018  0.00  0.00    +0.000 N 
ATOM     29  C   UNL     1     -12.246 -26.297   6.308  0.00  0.00    +0.000 C 
ATOM     30  O   UNL     1     -13.117 -25.748   6.967  0.00  0.00    +0.000 OA
ATOM     31  H   UNL     1     -11.154 -26.531   4.600  0.00  0.00    +0.000 HD
BRANCH  29  32
ATOM     32  C   UNL     1     -11.502 -27.383   6.899  0.00  0.00    +0.000 C 
ATOM     33  C   UNL     1     -10.866 -28.284   7.375  0.00  0.00    +0.000 C 
BRANCH  33  34
ATOM     34  C   UNL     1     -10.081 -29.362   7.940  0.00  0.00    +0.000 C 
ATOM     35  O   UNL     1     -10.683 -30.337   8.377  0.00  0.00    +0.000 OA
ATOM     36  N   UNL     1      -8.706 -29.196   7.982  0.00  0.00    +0.000 N 
BRANCH  36  37
ATOM     37  C   UNL     1      -7.725 -30.061   8.309  0.00  0.00    +0.000 C 
ATOM     38  C   UNL     1      -6.851 -30.832   8.596  0.00  0.00    +0.000 C 
BRANCH  38  39
ATOM     39  C   UNL     1      -5.736 -31.819   8.958  0.00  0.00    +0.000 C 
ATOM     40  C   UNL     1      -4.860 -32.588   9.240  0.00  0.00    +0.000 C 
BRANCH  40  41
ATOM     41  C   UNL     1      -3.739 -33.566   9.601  0.00  0.00    +0.000 C 
BRANCH  41  42
ATOM     42  N   UNL     1      -2.674 -34.495   9.943  0.00  0.00    +0.000 NA
ATOM     43  H   UNL     1      -2.735 -35.334   9.367  0.00  0.00    +0.000 HD
ATOM     44  H   UNL     1      -1.764 -34.083   9.744  0.00  0.00    +0.000 HD
ENDBRANCH  41  42
ENDBRANCH  40  41
ENDBRANCH  38  39
ENDBRANCH  36  37
BRANCH  36  45
ATOM     45  O   UNL     1      -8.158 -28.116   7.252  0.00  0.00    +0.000 OA
ATOM     46  H   UNL     1      -7.929 -27.495   7.968  0.00  0.00    +0.000 HD
ENDBRANCH  36  45
ENDBRANCH  33  34
ENDBRANCH  29  32
ENDBRANCH  27  28
ENDBRANCH  26  27
ENDBRANCH   1  25
TORSDOF 19
ENDMDL
MODEL 2
REMARK VINA RESULT:      -3.8     20.308     21.373
REMARK  Name = Deferoxamine.pdbqt.pdb
REMARK  19 active torsions:
REMARK  status: ('A' for Active; 'I' for Inactive)
REMARK    1  A    between atoms: C_1  and  C_2
REMARK    2  A    between atoms: C_3  and  C_4
REMARK    3  A    between atoms: C_4  and  N_5
REMARK    4  A    between atoms: C_6  and  C_9
REMARK    5  A    between atoms: C_10  and  C_11
REMARK    6  A    between atoms: N_13  and  O_14
REMARK    7  A    between atoms: N_13  and  C_16
REMARK    8  A    between atoms: C_17  and  C_18
REMARK    9  A    between atoms: C_19  and  C_20
REMARK   10  A    between atoms: C_20  and  N_21
REMARK   11  A    between atoms: C_24  and  N_25
REMARK   12  A    between atoms: N_25  and  O_28
REMARK   13  A    between atoms: C_26  and  C_30
REMARK   14  A    between atoms: C_31  and  C_32
REMARK   15  A    between atoms: N_34  and  C_36
REMARK   16  A    between atoms: C_37  and  C_38
REMARK   17  A    between atoms: C_38  and  C_39
REMARK   18  A    between atoms: C_40  and  N_41
REMARK   19  A    between atoms: N_41  and  O_45
REMARK                            x       y       z     vdW  Elec       q    Type
REMARK                         _______ _______ _______ _____ _____    ______ ____
ROOT
ATOM      1  C   UNL     1       3.514 -33.518   2.653  0.00  0.00    +0.000 C 
ATOM      2  C   UNL     1       3.594 -32.744   1.738  0.00  0.00    +0.000 C 
ENDROOT
BRANCH   2   3
ATOM      3  N   UNL     1       3.685 -31.875   0.710  0.00  0.00    +0.000 N 
ATOM      4  C   UNL     1       3.762 -30.493   0.700  0.00  0.00    +0.000 C 
ATOM      5  O   UNL     1       3.584 -29.775   1.678  0.00  0.00    +0.000 OA
BRANCH   4   6
ATOM      6  C   UNL     1       4.041 -29.850  -0.567  0.00  0.00    +0.000 C 
ATOM      7  C   UNL     1       4.285 -29.314  -1.615  0.00  0.00    +0.000 C 
BRANCH   7   8
ATOM      8  C   UNL     1       4.595 -28.659  -2.861  0.00  0.00    +0.000 C 
ATOM      9  O   UNL     1       4.334 -29.228  -3.911  0.00  0.00    +0.000 OA
ATOM     10  N   UNL     1       5.172 -27.415  -2.742  0.00  0.00    +0.000 N 
ATOM     11  H   UNL     1       5.319 -27.080  -1.798  0.00  0.00    +0.000 HD
BRANCH  10  12
ATOM     12  C   UNL     1       5.572 -26.566  -3.713  0.00  0.00    +0.000 C 
ATOM     13  C   UNL     1       5.921 -25.812  -4.579  0.00  0.00    +0.000 C 
BRANCH  13  14
ATOM     14  C   UNL     1       6.359 -24.849  -5.687  0.00  0.00    +0.000 C 
BRANCH  14  15
ATOM     15  C   UNL     1       6.789 -23.881  -6.793  0.00  0.00    +0.000 C 
ATOM     16  C   UNL     1       7.128 -23.121  -7.658  0.00  0.00    +0.000 C 
BRANCH  16  17
ATOM     17  N   UNL     1       7.514 -22.267  -8.625  0.00  0.00    +0.000 N 
ATOM     18  C   UNL     1       7.364 -22.316  -9.991  0.00  0.00    +0.000 C 
ATOM     19  O   UNL     1       6.830 -23.158 -10.691  0.00  0.00    +0.000 OA
ATOM     20  C   UNL     1       7.916 -21.193 -10.834  0.00  0.00    +0.000 C 
BRANCH  17  21
ATOM     21  O   UNL     1       8.184 -21.164  -8.036  0.00  0.00    +0.000 OA
ATOM     22  H   UNL     1       8.121 -20.471  -8.727  0.00  0.00    +0.000 HD
ENDBRANCH  17  21
ENDBRANCH  16  17
ENDBRANCH  14  15
ENDBRANCH  13  14
ENDBRANCH  10  12
ENDBRANCH   7   8
ENDBRANCH   4   6
BRANCH   3  23
ATOM     23  O   UNL     1       4.124 -32.561  -0.445  0.00  0.00    +0.000 OA
ATOM     24  H   UNL     1       3.610 -32.113  -1.143  0.00  0.00    +0.000 HD
ENDBRANCH   3  23
ENDBRANCH   2   3
BRANCH   1  25
ATOM     25  C   UNL     1       3.419 -34.493   3.830  0.00  0.00    +0.000 C 
ATOM     26  C   UNL     1       3.354 -35.250   4.758  0.00  0.00    +0.000 C 
BRANCH  26  27
ATOM     27  C   UNL     1       3.282 -36.210   5.950  0.00  0.00    +0.000 C 
BRANCH  27  28
ATOM     28  N   UNL     1       3.220 -37.042   7.013  0.00  0.00    +0.000 N 
ATOM     29  C   UNL     1       3.270 -36.740   8.353  0.00  0.00    +0.000 C 
ATOM     30  O   UNL     1       3.385 -35.621   8.830  0.00  0.00    +0.000 OA
ATOM     31  H   UNL     1       3.115 -38.019   6.771  0.00  0.00    +0.000 HD
BRANCH  29  32
ATOM     32  C   UNL     1       3.173 -37.872   9.243  0.00  0.00    +0.000 C 
ATOM     33  C   UNL     1       3.089 -38.799  10.002  0.00  0.00    +0.000 C 
BRANCH  33  34
ATOM     34  C   UNL     1       2.972 -39.905  10.930  0.00  0.00    +0.000 C 
ATOM     35  O   UNL     1       3.487 -39.776  12.036  0.00  0.00    +0.000 OA
ATOM     36  N   UNL     1       2.320 -41.043  10.488  0.00  0.00    +0.000 N 
BRANCH  36  37
ATOM     37  C   UNL     1       1.938 -42.153  11.153  0.00  0.00    +0.000 C 
ATOM     38  C   UNL     1       1.601 -43.140  11.747  0.00  0.00    +0.000 C 
BRANCH  38  39
ATOM     39  C   UNL     1       1.176 -44.400  12.507  0.00  0.00    +0.000 C 
ATOM     40  C   UNL     1       0.848 -45.390  13.100  0.00  0.00    +0.000 C 
BRANCH  40  41
ATOM     41  C   UNL     1       0.433 -46.656  13.856  0.00  0.00    +0.000 C 
BRANCH  41  42
ATOM     42  N   UNL     1       0.040 -47.857  14.573  0.00  0.00    +0.000 NA
ATOM     43  H   UNL     1      -0.972 -47.889  14.686  0.00  0.00    +0.000 HD
ATOM     44  H   UNL     1       0.289 -48.688  14.039  0.00  0.00    +0.000 HD
ENDBRANCH  41  42
ENDBRANCH  40  41
ENDBRANCH  38  39
ENDBRANCH  36  37
BRANCH  36  45
ATOM     45  O   UNL     1       1.605 -40.954   9.272  0.00  0.00    +0.000 OA
ATOM     46  H   UNL     1       2.311 -40.695   8.651  0.00  0.00    +0.000 HD
ENDBRANCH  36  45
ENDBRANCH  33  34
ENDBRANCH  29  32
ENDBRANCH  27  28
ENDBRANCH  26  27
ENDBRANCH   1  25
TORSDOF 19
ENDMDL
MODEL 3
REMARK VINA RESULT:      -3.8     20.285     21.285
REMARK  Name = Deferoxamine.pdbqt.pdb
REMARK  19 active torsions:
REMARK  status: ('A' for Active; 'I' for Inactive)
REMARK    1  A    between atoms: C_1  and  C_2
REMARK    2  A    between atoms: C_3  and  C_4
REMARK    3  A    between atoms: C_4  and  N_5
REMARK    4  A    between atoms: C_6  and  C_9
REMARK    5  A    between atoms: C_10  and  C_11
REMARK    6  A    between atoms: N_13  and  O_14
REMARK    7  A    between atoms: N_13  and  C_16
REMARK    8  A    between atoms: C_17  and  C_18
REMARK    9  A    between atoms: C_19  and  C_20
REMARK   10  A    between atoms: C_20  and  N_21
REMARK   11  A    between atoms: C_24  and  N_25
REMARK   12  A    between atoms: N_25  and  O_28
REMARK   13  A    between atoms: C_26  and  C_30
REMARK   14  A    between atoms: C_31  and  C_32
REMARK   15  A    between atoms: N_34  and  C_36
REMARK   16  A    between atoms: C_37  and  C_38
REMARK   17  A    between atoms: C_38  and  C_39
REMARK   18  A    between atoms: C_40  and  N_41
REMARK   19  A    between atoms: N_41  and  O_45
REMARK                            x       y       z     vdW  Elec       q    Type
REMARK                         _______ _______ _______ _____ _____    ______ ____
ROOT
ATOM      1  C   UNL     1       3.499 -33.450   2.644  0.00  0.00    +0.000 C 
ATOM      2  C   UNL     1       3.595 -32.701   1.710  0.00  0.00    +0.000 C 
ENDROOT
BRANCH   2   3
ATOM      3  N   UNL     1       3.704 -31.858   0.662  0.00  0.00    +0.000 N 
ATOM      4  C   UNL     1       3.628 -30.478   0.601  0.00  0.00    +0.000 C 
ATOM      5  O   UNL     1       3.263 -29.755   1.523  0.00  0.00    +0.000 OA
BRANCH   4   6
ATOM      6  C   UNL     1       3.973 -29.845  -0.655  0.00  0.00    +0.000 C 
ATOM      7  C   UNL     1       4.273 -29.317  -1.692  0.00  0.00    +0.000 C 
BRANCH   7   8
ATOM      8  C   UNL     1       4.646 -28.669  -2.925  0.00  0.00    +0.000 C 
ATOM      9  O   UNL     1       4.524 -29.281  -3.977  0.00  0.00    +0.000 OA
ATOM     10  N   UNL     1       5.117 -27.383  -2.792  0.00  0.00    +0.000 N 
ATOM     11  H   UNL     1       5.153 -27.015  -1.849  0.00  0.00    +0.000 HD
BRANCH  10  12
ATOM     12  C   UNL     1       5.540 -26.528  -3.748  0.00  0.00    +0.000 C 
ATOM     13  C   UNL     1       5.911 -25.770  -4.602  0.00  0.00    +0.000 C 
BRANCH  13  14
ATOM     14  C   UNL     1       6.376 -24.802  -5.694  0.00  0.00    +0.000 C 
BRANCH  14  15
ATOM     15  C   UNL     1       6.833 -23.830  -6.786  0.00  0.00    +0.000 C 
ATOM     16  C   UNL     1       7.193 -23.066  -7.639  0.00  0.00    +0.000 C 
BRANCH  16  17
ATOM     17  N   UNL     1       7.602 -22.208  -8.593  0.00  0.00    +0.000 N 
ATOM     18  C   UNL     1       7.528 -22.275  -9.964  0.00  0.00    +0.000 C 
ATOM     19  O   UNL     1       7.062 -23.140 -10.683  0.00  0.00    +0.000 OA
ATOM     20  C   UNL     1       8.087 -21.141 -10.788  0.00  0.00    +0.000 C 
BRANCH  17  21
ATOM     21  O   UNL     1       8.202 -21.077  -7.980  0.00  0.00    +0.000 OA
ATOM     22  H   UNL     1       8.153 -20.394  -8.680  0.00  0.00    +0.000 HD
ENDBRANCH  17  21
ENDBRANCH  16  17
ENDBRANCH  14  15
ENDBRANCH  13  14
ENDBRANCH  10  12
ENDBRANCH   7   8
ENDBRANCH   4   6
BRANCH   3  23
ATOM     23  O   UNL     1       4.342 -32.524  -0.409  0.00  0.00    +0.000 OA
ATOM     24  H   UNL     1       4.172 -33.458  -0.187  0.00  0.00    +0.000 HD
ENDBRANCH   3  23
ENDBRANCH   2   3
BRANCH   1  25
ATOM     25  C   UNL     1       3.383 -34.394   3.843  0.00  0.00    +0.000 C 
ATOM     26  C   UNL     1       3.300 -35.126   4.790  0.00  0.00    +0.000 C 
BRANCH  26  27
ATOM     27  C   UNL     1       3.204 -36.052   6.007  0.00  0.00    +0.000 C 
BRANCH  27  28
ATOM     28  N   UNL     1       3.119 -36.854   7.091  0.00  0.00    +0.000 N 
ATOM     29  C   UNL     1       3.793 -38.022   7.359  0.00  0.00    +0.000 C 
ATOM     30  O   UNL     1       4.618 -38.555   6.632  0.00  0.00    +0.000 OA
ATOM     31  H   UNL     1       2.468 -36.533   7.797  0.00  0.00    +0.000 HD
BRANCH  29  32
ATOM     32  C   UNL     1       3.471 -38.642   8.622  0.00  0.00    +0.000 C 
ATOM     33  C   UNL     1       3.222 -39.173   9.670  0.00  0.00    +0.000 C 
BRANCH  33  34
ATOM     34  C   UNL     1       2.944 -39.818  10.937  0.00  0.00    +0.000 C 
ATOM     35  O   UNL     1       3.022 -41.042  10.982  0.00  0.00    +0.000 OA
ATOM     36  N   UNL     1       2.573 -39.008  11.997  0.00  0.00    +0.000 N 
BRANCH  36  37
ATOM     37  C   UNL     1       2.395 -39.295  13.303  0.00  0.00    +0.000 C 
ATOM     38  C   UNL     1       2.237 -39.554  14.464  0.00  0.00    +0.000 C 
BRANCH  38  39
ATOM     39  C   UNL     1       2.030 -39.889  15.945  0.00  0.00    +0.000 C 
ATOM     40  C   UNL     1       1.862 -40.151  17.104  0.00  0.00    +0.000 C 
BRANCH  40  41
ATOM     41  C   UNL     1       1.644 -40.485  18.582  0.00  0.00    +0.000 C 
BRANCH  41  42
ATOM     42  N   UNL     1       1.437 -40.803  19.985  0.00  0.00    +0.000 NA
ATOM     43  H   UNL     1       2.184 -40.408  20.554  0.00  0.00    +0.000 HD
ATOM     44  H   UNL     1       0.573 -40.380  20.322  0.00  0.00    +0.000 HD
ENDBRANCH  41  42
ENDBRANCH  40  41
ENDBRANCH  38  39
ENDBRANCH  36  37
BRANCH  36  45
ATOM     45  O   UNL     1       2.733 -37.613  11.840  0.00  0.00    +0.000 OA
ATOM     46  H   UNL     1       2.176 -37.441  11.059  0.00  0.00    +0.000 HD
ENDBRANCH  36  45
ENDBRANCH  33  34
ENDBRANCH  29  32
ENDBRANCH  27  28
ENDBRANCH  26  27
ENDBRANCH   1  25
TORSDOF 19
ENDMDL
MODEL 4
REMARK VINA RESULT:      -3.8      2.913      3.083
REMARK  Name = Deferoxamine.pdbqt.pdb
REMARK  19 active torsions:
REMARK  status: ('A' for Active; 'I' for Inactive)
REMARK    1  A    between atoms: C_1  and  C_2
REMARK    2  A    between atoms: C_3  and  C_4
REMARK    3  A    between atoms: C_4  and  N_5
REMARK    4  A    between atoms: C_6  and  C_9
REMARK    5  A    between atoms: C_10  and  C_11
REMARK    6  A    between atoms: N_13  and  O_14
REMARK    7  A    between atoms: N_13  and  C_16
REMARK    8  A    between atoms: C_17  and  C_18
REMARK    9  A    between atoms: C_19  and  C_20
REMARK   10  A    between atoms: C_20  and  N_21
REMARK   11  A    between atoms: C_24  and  N_25
REMARK   12  A    between atoms: N_25  and  O_28
REMARK   13  A    between atoms: C_26  and  C_30
REMARK   14  A    between atoms: C_31  and  C_32
REMARK   15  A    between atoms: N_34  and  C_36
REMARK   16  A    between atoms: C_37  and  C_38
REMARK   17  A    between atoms: C_38  and  C_39
REMARK   18  A    between atoms: C_40  and  N_41
REMARK   19  A    between atoms: N_41  and  O_45
REMARK                            x       y       z     vdW  Elec       q    Type
REMARK                         _______ _______ _______ _____ _____    ______ ____
ROOT
ATOM      1  C   UNL     1     -14.307 -22.351   1.653  0.00  0.00    +0.000 C 
ATOM      2  C   UNL     1     -14.898 -21.514   1.026  0.00  0.00    +0.000 C 
ENDROOT
BRANCH   2   3
ATOM      3  N   UNL     1     -15.564 -20.574   0.324  0.00  0.00    +0.000 N 
ATOM      4  C   UNL     1     -15.888 -19.267   0.645  0.00  0.00    +0.000 C 
ATOM      5  O   UNL     1     -15.760 -18.767   1.758  0.00  0.00    +0.000 OA
BRANCH   4   6
ATOM      6  C   UNL     1     -16.453 -18.443  -0.403  0.00  0.00    +0.000 C 
ATOM      7  C   UNL     1     -16.929 -17.770  -1.277  0.00  0.00    +0.000 C 
BRANCH   7   8
ATOM      8  C   UNL     1     -17.499 -16.981  -2.341  0.00  0.00    +0.000 C 
ATOM      9  O   UNL     1     -17.834 -17.537  -3.377  0.00  0.00    +0.000 OA
ATOM     10  N   UNL     1     -17.614 -15.635  -2.076  0.00  0.00    +0.000 N 
ATOM     11  H   UNL     1     -17.294 -15.330  -1.165  0.00  0.00    +0.000 HD
BRANCH  10  12
ATOM     12  C   UNL     1     -18.102 -14.652  -2.863  0.00  0.00    +0.000 C 
ATOM     13  C   UNL     1     -18.535 -13.781  -3.566  0.00  0.00    +0.000 C 
BRANCH  13  14
ATOM     14  C   UNL     1     -19.088 -12.676  -4.472  0.00  0.00    +0.000 C 
BRANCH  14  15
ATOM     15  C   UNL     1     -19.641 -11.566  -5.370  0.00  0.00    +0.000 C 
ATOM     16  C   UNL     1     -20.077 -10.695  -6.071  0.00  0.00    +0.000 C 
BRANCH  16  17
ATOM     17  N   UNL     1     -20.568  -9.714  -6.853  0.00  0.00    +0.000 N 
ATOM     18  C   UNL     1     -20.705  -8.364  -6.635  0.00  0.00    +0.000 C 
ATOM     19  O   UNL     1     -20.409  -7.693  -5.662  0.00  0.00    +0.000 OA
ATOM     20  C   UNL     1     -21.306  -7.500  -7.716  0.00  0.00    +0.000 C 
BRANCH  17  21
ATOM     21  O   UNL     1     -20.994 -10.268  -8.088  0.00  0.00    +0.000 OA
ATOM     22  H   UNL     1     -21.736  -9.685  -8.349  0.00  0.00    +0.000 HD
ENDBRANCH  17  21
ENDBRANCH  16  17
ENDBRANCH  14  15
ENDBRANCH  13  14
ENDBRANCH  10  12
ENDBRANCH   7   8
ENDBRANCH   4   6
BRANCH   3  23
ATOM     23  O   UNL     1     -15.572 -20.930  -1.044  0.00  0.00    +0.000 OA
ATOM     24  H   UNL     1     -16.507 -21.176  -1.175  0.00  0.00    +0.000 HD
ENDBRANCH   3  23
ENDBRANCH   2   3
BRANCH   1  25
ATOM     25  C   UNL     1     -13.562 -23.429   2.445  0.00  0.00    +0.000 C 
ATOM     26  C   UNL     1     -12.990 -24.282   3.064  0.00  0.00    +0.000 C 
BRANCH  26  27
ATOM     27  C   UNL     1     -12.270 -25.380   3.855  0.00  0.00    +0.000 C 
BRANCH  27  28
ATOM     28  N   UNL     1     -11.622 -26.336   4.555  0.00  0.00    +0.000 N 
ATOM     29  C   UNL     1     -12.130 -27.251   5.447  0.00  0.00    +0.000 C 
ATOM     30  O   UNL     1     -13.304 -27.358   5.771  0.00  0.00    +0.000 OA
ATOM     31  H   UNL     1     -10.626 -26.376   4.382  0.00  0.00    +0.000 HD
BRANCH  29  32
ATOM     32  C   UNL     1     -11.161 -28.148   6.028  0.00  0.00    +0.000 C 
ATOM     33  C   UNL     1     -10.345 -28.876   6.524  0.00  0.00    +0.000 C 
BRANCH  33  34
ATOM     34  C   UNL     1      -9.362 -29.742   7.142  0.00  0.00    +0.000 C 
ATOM     35  O   UNL     1      -9.342 -30.920   6.797  0.00  0.00    +0.000 OA
ATOM     36  N   UNL     1      -8.539 -29.187   8.107  0.00  0.00    +0.000 N 
BRANCH  36  37
ATOM     37  C   UNL     1      -7.460 -29.691   8.740  0.00  0.00    +0.000 C 
ATOM     38  C   UNL     1      -6.498 -30.139   9.301  0.00  0.00    +0.000 C 
BRANCH  38  39
ATOM     39  C   UNL     1      -5.267 -30.714  10.010  0.00  0.00    +0.000 C 
ATOM     40  C   UNL     1      -4.306 -31.164  10.570  0.00  0.00    +0.000 C 
BRANCH  40  41
ATOM     41  C   UNL     1      -3.082 -31.737  11.289  0.00  0.00    +0.000 C 
BRANCH  41  42
ATOM     42  N   UNL     1      -1.920 -32.282  11.971  0.00  0.00    +0.000 NA
ATOM     43  H   UNL     1      -2.169 -32.587  12.910  0.00  0.00    +0.000 HD
ATOM     44  H   UNL     1      -1.579 -33.111  11.487  0.00  0.00    +0.000 HD
ENDBRANCH  41  42
ENDBRANCH  40  41
ENDBRANCH  38  39
ENDBRANCH  36  37
BRANCH  36  45
ATOM     45  O   UNL     1      -8.545 -27.779   8.238  0.00  0.00    +0.000 OA
ATOM     46  H   UNL     1      -8.074 -27.508   7.429  0.00  0.00    +0.000 HD
ENDBRANCH  36  45
ENDBRANCH  33  34
ENDBRANCH  29  32
ENDBRANCH  27  28
ENDBRANCH  26  27
ENDBRANCH   1  25
TORSDOF 19
ENDMDL
MODEL 5
REMARK VINA RESULT:      -3.7     20.090     29.285
REMARK  Name = Deferoxamine.pdbqt.pdb
REMARK  19 active torsions:
REMARK  status: ('A' for Active; 'I' for Inactive)
REMARK    1  A    between atoms: C_1  and  C_2
REMARK    2  A    between atoms: C_3  and  C_4
REMARK    3  A    between atoms: C_4  and  N_5
REMARK    4  A    between atoms: C_6  and  C_9
REMARK    5  A    between atoms: C_10  and  C_11
REMARK    6  A    between atoms: N_13  and  O_14
REMARK    7  A    between atoms: N_13  and  C_16
REMARK    8  A    between atoms: C_17  and  C_18
REMARK    9  A    between atoms: C_19  and  C_20
REMARK   10  A    between atoms: C_20  and  N_21
REMARK   11  A    between atoms: C_24  and  N_25
REMARK   12  A    between atoms: N_25  and  O_28
REMARK   13  A    between atoms: C_26  and  C_30
REMARK   14  A    between atoms: C_31  and  C_32
REMARK   15  A    between atoms: N_34  and  C_36
REMARK   16  A    between atoms: C_37  and  C_38
REMARK   17  A    between atoms: C_38  and  C_39
REMARK   18  A    between atoms: C_40  and  N_41
REMARK   19  A    between atoms: N_41  and  O_45
REMARK                            x       y       z     vdW  Elec       q    Type
REMARK                         _______ _______ _______ _____ _____    ______ ____
ROOT
ATOM      1  C   UNL     1       4.068 -31.653   1.833  0.00  0.00    +0.000 C 
ATOM      2  C   UNL     1       3.885 -32.462   2.703  0.00  0.00    +0.000 C 
ENDROOT
BRANCH   2   3
ATOM      3  N   UNL     1       3.678 -33.368   3.680  0.00  0.00    +0.000 N 
ATOM      4  C   UNL     1       3.623 -34.751   3.632  0.00  0.00    +0.000 C 
ATOM      5  O   UNL     1       3.586 -35.415   2.602  0.00  0.00    +0.000 OA
BRANCH   4   6
ATOM      6  C   UNL     1       3.569 -35.461   4.893  0.00  0.00    +0.000 C 
ATOM      7  C   UNL     1       3.511 -36.047   5.940  0.00  0.00    +0.000 C 
BRANCH   7   8
ATOM      8  C   UNL     1       3.424 -36.737   7.204  0.00  0.00    +0.000 C 
ATOM      9  O   UNL     1       3.808 -36.170   8.216  0.00  0.00    +0.000 OA
ATOM     10  N   UNL     1       2.898 -38.008   7.142  0.00  0.00    +0.000 N 
ATOM     11  H   UNL     1       2.620 -38.333   6.225  0.00  0.00    +0.000 HD
BRANCH  10  12
ATOM     12  C   UNL     1       2.691 -38.892   8.142  0.00  0.00    +0.000 C 
ATOM     13  C   UNL     1       2.504 -39.674   9.033  0.00  0.00    +0.000 C 
BRANCH  13  14
ATOM     14  C   UNL     1       2.257 -40.668  10.172  0.00  0.00    +0.000 C 
BRANCH  14  15
ATOM     15  C   UNL     1       2.007 -41.655  11.316  0.00  0.00    +0.000 C 
ATOM     16  C   UNL     1       1.808 -42.429  12.212  0.00  0.00    +0.000 C 
BRANCH  16  17
ATOM     17  N   UNL     1       1.581 -43.301  13.213  0.00  0.00    +0.000 N 
ATOM     18  C   UNL     1       0.489 -43.478  14.030  0.00  0.00    +0.000 C 
ATOM     19  O   UNL     1      -0.574 -42.884  14.057  0.00  0.00    +0.000 OA
ATOM     20  C   UNL     1       0.527 -44.554  15.086  0.00  0.00    +0.000 C 
BRANCH  17  21
ATOM     21  O   UNL     1       2.719 -44.131  13.379  0.00  0.00    +0.000 OA
ATOM     22  H   UNL     1       2.761 -44.623  12.533  0.00  0.00    +0.000 HD
ENDBRANCH  17  21
ENDBRANCH  16  17
ENDBRANCH  14  15
ENDBRANCH  13  14
ENDBRANCH  10  12
ENDBRANCH   7   8
ENDBRANCH   4   6
BRANCH   3  23
ATOM     23  O   UNL     1       3.929 -32.770   4.936  0.00  0.00    +0.000 OA
ATOM     24  H   UNL     1       3.617 -31.858   4.781  0.00  0.00    +0.000 HD
ENDBRANCH   3  23
ENDBRANCH   2   3
BRANCH   1  25
ATOM     25  C   UNL     1       4.300 -30.612   0.735  0.00  0.00    +0.000 C 
ATOM     26  C   UNL     1       4.474 -29.786  -0.118  0.00  0.00    +0.000 C 
BRANCH  26  27
ATOM     27  C   UNL     1       4.689 -28.723  -1.200  0.00  0.00    +0.000 C 
BRANCH  27  28
ATOM     28  N   UNL     1       4.896 -27.790  -2.154  0.00  0.00    +0.000 N 
ATOM     29  C   UNL     1       6.057 -27.473  -2.818  0.00  0.00    +0.000 C 
ATOM     30  O   UNL     1       7.145 -28.005  -2.650  0.00  0.00    +0.000 OA
ATOM     31  H   UNL     1       4.070 -27.263  -2.409  0.00  0.00    +0.000 HD
BRANCH  29  32
ATOM     32  C   UNL     1       5.940 -26.416  -3.793  0.00  0.00    +0.000 C 
ATOM     33  C   UNL     1       5.853 -25.521  -4.590  0.00  0.00    +0.000 C 
BRANCH  33  34
ATOM     34  C   UNL     1       5.766 -24.432  -5.541  0.00  0.00    +0.000 C 
ATOM     35  O   UNL     1       4.969 -23.530  -5.303  0.00  0.00    +0.000 OA
ATOM     36  N   UNL     1       6.563 -24.507  -6.670  0.00  0.00    +0.000 N 
BRANCH  36  37
ATOM     37  C   UNL     1       6.803 -23.599  -7.640  0.00  0.00    +0.000 C 
ATOM     38  C   UNL     1       7.014 -22.790  -8.500  0.00  0.00    +0.000 C 
BRANCH  38  39
ATOM     39  C   UNL     1       7.277 -21.754  -9.598  0.00  0.00    +0.000 C 
ATOM     40  C   UNL     1       7.488 -20.942 -10.456  0.00  0.00    +0.000 C 
BRANCH  40  41
ATOM     41  C   UNL     1       7.761 -19.905 -11.549  0.00  0.00    +0.000 C 
BRANCH  41  42
ATOM     42  N   UNL     1       8.019 -18.921 -12.587  0.00  0.00    +0.000 NA
ATOM     43  H   UNL     1       7.160 -18.432 -12.835  0.00  0.00    +0.000 HD
ATOM     44  H   UNL     1       8.661 -18.207 -12.248  0.00  0.00    +0.000 HD
ENDBRANCH  41  42
ENDBRANCH  40  41
ENDBRANCH  38  39
ENDBRANCH  36  37
BRANCH  36  45
ATOM     45  O   UNL     1       7.572 -25.496  -6.692  0.00  0.00    +0.000 OA
ATOM     46  H   UNL     1       8.369 -24.956  -6.848  0.00  0.00    +0.000 HD
ENDBRANCH  36  45
ENDBRANCH  33  34
ENDBRANCH  29  32
ENDBRANCH  27  28
ENDBRANCH  26  27
ENDBRANCH   1  25
TORSDOF 19
ENDMDL
MODEL 6
REMARK VINA RESULT:      -3.5     18.409     19.472
REMARK  Name = Deferoxamine.pdbqt.pdb
REMARK  19 active torsions:
REMARK  status: ('A' for Active; 'I' for Inactive)
REMARK    1  A    between atoms: C_1  and  C_2
REMARK    2  A    between atoms: C_3  and  C_4
REMARK    3  A    between atoms: C_4  and  N_5
REMARK    4  A    between atoms: C_6  and  C_9
REMARK    5  A    between atoms: C_10  and  C_11
REMARK    6  A    between atoms: N_13  and  O_14
REMARK    7  A    between atoms: N_13  and  C_16
REMARK    8  A    between atoms: C_17  and  C_18
REMARK    9  A    between atoms: C_19  and  C_20
REMARK   10  A    between atoms: C_20  and  N_21
REMARK   11  A    between atoms: C_24  and  N_25
REMARK   12  A    between atoms: N_25  and  O_28
REMARK   13  A    between atoms: C_26  and  C_30
REMARK   14  A    between atoms: C_31  and  C_32
REMARK   15  A    between atoms: N_34  and  C_36
REMARK   16  A    between atoms: C_37  and  C_38
REMARK   17  A    between atoms: C_38  and  C_39
REMARK   18  A    between atoms: C_40  and  N_41
REMARK   19  A    between atoms: N_41  and  O_45
REMARK                            x       y       z     vdW  Elec       q    Type
REMARK                         _______ _______ _______ _____ _____    ______ ____
ROOT
ATOM      1  C   UNL     1      -3.655 -15.413 -14.443  0.00  0.00    +0.000 C 
ATOM      2  C   UNL     1      -4.606 -14.686 -14.541  0.00  0.00    +0.000 C 
ENDROOT
BRANCH   2   3
ATOM      3  N   UNL     1      -5.674 -13.869 -14.650  0.00  0.00    +0.000 N 
ATOM      4  C   UNL     1      -6.898 -14.062 -15.266  0.00  0.00    +0.000 C 
ATOM      5  O   UNL     1      -7.172 -15.004 -16.002  0.00  0.00    +0.000 OA
BRANCH   4   6
ATOM      6  C   UNL     1      -7.918 -13.056 -15.052  0.00  0.00    +0.000 C 
ATOM      7  C   UNL     1      -8.772 -12.228 -14.884  0.00  0.00    +0.000 C 
BRANCH   7   8
ATOM      8  C   UNL     1      -9.804 -11.237 -14.704  0.00  0.00    +0.000 C 
ATOM      9  O   UNL     1      -9.829 -10.265 -15.445  0.00  0.00    +0.000 OA
ATOM     10  N   UNL     1     -10.690 -11.492 -13.681  0.00  0.00    +0.000 N 
ATOM     11  H   UNL     1     -10.537 -12.346 -13.160  0.00  0.00    +0.000 HD
BRANCH  10  12
ATOM     12  C   UNL     1     -11.749 -10.761 -13.271  0.00  0.00    +0.000 C 
ATOM     13  C   UNL     1     -12.691 -10.109 -12.912  0.00  0.00    +0.000 C 
BRANCH  13  14
ATOM     14  C   UNL     1     -13.894  -9.274 -12.462  0.00  0.00    +0.000 C 
BRANCH  14  15
ATOM     15  C   UNL     1     -15.092  -8.437 -12.005  0.00  0.00    +0.000 C 
ATOM     16  C   UNL     1     -16.030  -7.779 -11.648  0.00  0.00    +0.000 C 
BRANCH  16  17
ATOM     17  N   UNL     1     -17.083  -7.037 -11.253  0.00  0.00    +0.000 N 
ATOM     18  C   UNL     1     -17.189  -6.048 -10.304  0.00  0.00    +0.000 C 
ATOM     19  O   UNL     1     -16.343  -5.577  -9.564  0.00  0.00    +0.000 OA
ATOM     20  C   UNL     1     -18.525  -5.386 -10.076  0.00  0.00    +0.000 C 
BRANCH  17  21
ATOM     21  O   UNL     1     -18.229  -7.415 -11.999  0.00  0.00    +0.000 OA
ATOM     22  H   UNL     1     -18.265  -8.386 -11.873  0.00  0.00    +0.000 HD
ENDBRANCH  17  21
ENDBRANCH  16  17
ENDBRANCH  14  15
ENDBRANCH  13  14
ENDBRANCH  10  12
ENDBRANCH   7   8
ENDBRANCH   4   6
BRANCH   3  23
ATOM     23  O   UNL     1      -5.589 -12.854 -13.671  0.00  0.00    +0.000 OA
ATOM     24  H   UNL     1      -6.373 -13.046 -13.124  0.00  0.00    +0.000 HD
ENDBRANCH   3  23
ENDBRANCH   2   3
BRANCH   1  25
ATOM     25  C   UNL     1      -2.439 -16.334 -14.303  0.00  0.00    +0.000 C 
ATOM     26  C   UNL     1      -1.495 -17.066 -14.191  0.00  0.00    +0.000 C 
BRANCH  26  27
ATOM     27  C   UNL     1      -0.298 -18.011 -14.045  0.00  0.00    +0.000 C 
BRANCH  27  28
ATOM     28  N   UNL     1       0.768 -18.830 -13.914  0.00  0.00    +0.000 N 
ATOM     29  C   UNL     1       1.343 -19.660 -14.847  0.00  0.00    +0.000 C 
ATOM     30  O   UNL     1       0.970 -19.803 -16.003  0.00  0.00    +0.000 OA
ATOM     31  H   UNL     1       1.196 -18.814 -12.997  0.00  0.00    +0.000 HD
BRANCH  29  32
ATOM     32  C   UNL     1       2.485 -20.409 -14.384  0.00  0.00    +0.000 C 
ATOM     33  C   UNL     1       3.443 -21.015 -13.984  0.00  0.00    +0.000 C 
BRANCH  33  34
ATOM     34  C   UNL     1       4.594 -21.735 -13.482  0.00  0.00    +0.000 C 
ATOM     35  O   UNL     1       5.687 -21.482 -13.980  0.00  0.00    +0.000 OA
ATOM     36  N   UNL     1       4.373 -22.686 -12.500  0.00  0.00    +0.000 N 
BRANCH  36  37
ATOM     37  C   UNL     1       5.243 -23.397 -11.752  0.00  0.00    +0.000 C 
ATOM     38  C   UNL     1       6.015 -24.033 -11.089  0.00  0.00    +0.000 C 
BRANCH  38  39
ATOM     39  C   UNL     1       6.997 -24.850 -10.242  0.00  0.00    +0.000 C 
ATOM     40  C   UNL     1       7.769 -25.490  -9.584  0.00  0.00    +0.000 C 
BRANCH  40  41
ATOM     41  C   UNL     1       8.756 -26.307  -8.746  0.00  0.00    +0.000 C 
BRANCH  41  42
ATOM     42  N   UNL     1       9.694 -27.083  -7.952  0.00  0.00    +0.000 NA
ATOM     43  H   UNL     1       9.283 -27.977  -7.689  0.00  0.00    +0.000 HD
ATOM     44  H   UNL     1      10.525 -27.305  -8.499  0.00  0.00    +0.000 HD
ENDBRANCH  41  42
ENDBRANCH  40  41
ENDBRANCH  38  39
ENDBRANCH  36  37
BRANCH  36  45
ATOM     45  O   UNL     1       3.099 -22.708 -11.888  0.00  0.00    +0.000 OA
ATOM     46  H   UNL     1       3.106 -21.866 -11.397  0.00  0.00    +0.000 HD
ENDBRANCH  36  45
ENDBRANCH  33  34
ENDBRANCH  29  32
ENDBRANCH  27  28
ENDBRANCH  26  27
ENDBRANCH   1  25
TORSDOF 19
ENDMDL
MODEL 7
REMARK VINA RESULT:      -3.4     13.506     21.405
REMARK  Name = Deferoxamine.pdbqt.pdb
REMARK  19 active torsions:
REMARK  status: ('A' for Active; 'I' for Inactive)
REMARK    1  A    between atoms: C_1  and  C_2
REMARK    2  A    between atoms: C_3  and  C_4
REMARK    3  A    between atoms: C_4  and  N_5
REMARK    4  A    between atoms: C_6  and  C_9
REMARK    5  A    between atoms: C_10  and  C_11
REMARK    6  A    between atoms: N_13  and  O_14
REMARK    7  A    between atoms: N_13  and  C_16
REMARK    8  A    between atoms: C_17  and  C_18
REMARK    9  A    between atoms: C_19  and  C_20
REMARK   10  A    between atoms: C_20  and  N_21
REMARK   11  A    between atoms: C_24  and  N_25
REMARK   12  A    between atoms: N_25  and  O_28
REMARK   13  A    between atoms: C_26  and  C_30
REMARK   14  A    between atoms: C_31  and  C_32
REMARK   15  A    between atoms: N_34  and  C_36
REMARK   16  A    between atoms: C_37  and  C_38
REMARK   17  A    between atoms: C_38  and  C_39
REMARK   18  A    between atoms: C_40  and  N_41
REMARK   19  A    between atoms: N_41  and  O_45
REMARK                            x       y       z     vdW  Elec       q    Type
REMARK                         _______ _______ _______ _____ _____    ______ ____
ROOT
ATOM      1  C   UNL     1      -5.700 -17.611   3.465  0.00  0.00    +0.000 C 
ATOM      2  C   UNL     1      -6.266 -18.000   4.451  0.00  0.00    +0.000 C 
ENDROOT
BRANCH   2   3
ATOM      3  N   UNL     1      -6.903 -18.438   5.556  0.00  0.00    +0.000 N 
ATOM      4  C   UNL     1      -6.957 -19.698   6.127  0.00  0.00    +0.000 C 
ATOM      5  O   UNL     1      -6.543 -20.725   5.599  0.00  0.00    +0.000 OA
BRANCH   4   6
ATOM      6  C   UNL     1      -7.579 -19.814   7.430  0.00  0.00    +0.000 C 
ATOM      7  C   UNL     1      -8.102 -19.923   8.506  0.00  0.00    +0.000 C 
BRANCH   7   8
ATOM      8  C   UNL     1      -8.747 -20.063   9.788  0.00  0.00    +0.000 C 
ATOM      9  O   UNL     1      -9.844 -20.600   9.845  0.00  0.00    +0.000 OA
ATOM     10  N   UNL     1      -8.040 -19.563  10.859  0.00  0.00    +0.000 N 
ATOM     11  H   UNL     1      -7.140 -19.152  10.646  0.00  0.00    +0.000 HD
BRANCH  10  12
ATOM     12  C   UNL     1      -8.375 -19.546  12.167  0.00  0.00    +0.000 C 
ATOM     13  C   UNL     1      -8.670 -19.536  13.330  0.00  0.00    +0.000 C 
BRANCH  13  14
ATOM     14  C   UNL     1      -9.039 -19.529  14.817  0.00  0.00    +0.000 C 
BRANCH  14  15
ATOM     15  C   UNL     1      -9.406 -19.531  16.303  0.00  0.00    +0.000 C 
ATOM     16  C   UNL     1      -9.692 -19.530  17.469  0.00  0.00    +0.000 C 
BRANCH  16  17
ATOM     17  N   UNL     1     -10.010 -19.523  18.778  0.00  0.00    +0.000 N 
ATOM     18  C   UNL     1     -11.076 -20.067  19.455  0.00  0.00    +0.000 C 
ATOM     19  O   UNL     1     -12.024 -20.710  19.038  0.00  0.00    +0.000 OA
ATOM     20  C   UNL     1     -11.168 -19.889  20.950  0.00  0.00    +0.000 C 
BRANCH  17  21
ATOM     21  O   UNL     1      -9.019 -18.806  19.498  0.00  0.00    +0.000 OA
ATOM     22  H   UNL     1      -9.112 -19.154  20.409  0.00  0.00    +0.000 HD
ENDBRANCH  17  21
ENDBRANCH  16  17
ENDBRANCH  14  15
ENDBRANCH  13  14
ENDBRANCH  10  12
ENDBRANCH   7   8
ENDBRANCH   4   6
BRANCH   3  23
ATOM     23  O   UNL     1      -7.226 -17.336   6.379  0.00  0.00    +0.000 OA
ATOM     24  H   UNL     1      -7.422 -16.649   5.714  0.00  0.00    +0.000 HD
ENDBRANCH   3  23
ENDBRANCH   2   3
BRANCH   1  25
ATOM     25  C   UNL     1      -4.993 -17.108   2.204  0.00  0.00    +0.000 C 
ATOM     26  C   UNL     1      -4.426 -16.719   1.221  0.00  0.00    +0.000 C 
BRANCH  26  27
ATOM     27  C   UNL     1      -3.690 -16.226  -0.029  0.00  0.00    +0.000 C 
BRANCH  27  28
ATOM     28  N   UNL     1      -3.033 -15.778  -1.121  0.00  0.00    +0.000 N 
ATOM     29  C   UNL     1      -3.497 -14.992  -2.149  0.00  0.00    +0.000 C 
ATOM     30  O   UNL     1      -4.631 -14.546  -2.253  0.00  0.00    +0.000 OA
ATOM     31  H   UNL     1      -2.064 -16.064  -1.172  0.00  0.00    +0.000 HD
BRANCH  29  32
ATOM     32  C   UNL     1      -2.530 -14.685  -3.175  0.00  0.00    +0.000 C 
ATOM     33  C   UNL     1      -1.728 -14.452  -4.038  0.00  0.00    +0.000 C 
BRANCH  33  34
ATOM     34  C   UNL     1      -0.772 -14.184  -5.093  0.00  0.00    +0.000 C 
ATOM     35  O   UNL     1      -1.030 -13.278  -5.879  0.00  0.00    +0.000 OA
ATOM     36  N   UNL     1       0.347 -14.997  -5.161  0.00  0.00    +0.000 N 
BRANCH  36  37
ATOM     37  C   UNL     1       1.456 -14.905  -5.924  0.00  0.00    +0.000 C 
ATOM     38  C   UNL     1       2.443 -14.820  -6.601  0.00  0.00    +0.000 C 
BRANCH  38  39
ATOM     39  C   UNL     1       3.700 -14.705  -7.470  0.00  0.00    +0.000 C 
ATOM     40  C   UNL     1       4.683 -14.620  -8.151  0.00  0.00    +0.000 C 
BRANCH  40  41
ATOM     41  C   UNL     1       5.938 -14.515  -9.023  0.00  0.00    +0.000 C 
BRANCH  41  42
ATOM     42  N   UNL     1       7.129 -14.415  -9.851  0.00  0.00    +0.000 NA
ATOM     43  H   UNL     1       7.216 -15.236 -10.449  0.00  0.00    +0.000 HD
ATOM     44  H   UNL     1       7.059 -13.616 -10.478  0.00  0.00    +0.000 HD
ENDBRANCH  41  42
ENDBRANCH  40  41
ENDBRANCH  38  39
ENDBRANCH  36  37
BRANCH  36  45
ATOM     45  O   UNL     1       0.599 -15.852  -4.065  0.00  0.00    +0.000 OA
ATOM     46  H   UNL     1      -0.148 -15.638  -3.476  0.00  0.00    +0.000 HD
ENDBRANCH  36  45
ENDBRANCH  33  34
ENDBRANCH  29  32
ENDBRANCH  27  28
ENDBRANCH  26  27
ENDBRANCH   1  25
TORSDOF 19
ENDMDL
MODEL 8
REMARK VINA RESULT:      -3.3      4.732     21.652
REMARK  Name = Deferoxamine.pdbqt.pdb
REMARK  19 active torsions:
REMARK  status: ('A' for Active; 'I' for Inactive)
REMARK    1  A    between atoms: C_1  and  C_2
REMARK    2  A    between atoms: C_3  and  C_4
REMARK    3  A    between atoms: C_4  and  N_5
REMARK    4  A    between atoms: C_6  and  C_9
REMARK    5  A    between atoms: C_10  and  C_11
REMARK    6  A    between atoms: N_13  and  O_14
REMARK    7  A    between atoms: N_13  and  C_16
REMARK    8  A    between atoms: C_17  and  C_18
REMARK    9  A    between atoms: C_19  and  C_20
REMARK   10  A    between atoms: C_20  and  N_21
REMARK   11  A    between atoms: C_24  and  N_25
REMARK   12  A    between atoms: N_25  and  O_28
REMARK   13  A    between atoms: C_26  and  C_30
REMARK   14  A    between atoms: C_31  and  C_32
REMARK   15  A    between atoms: N_34  and  C_36
REMARK   16  A    between atoms: C_37  and  C_38
REMARK   17  A    between atoms: C_38  and  C_39
REMARK   18  A    between atoms: C_40  and  N_41
REMARK   19  A    between atoms: N_41  and  O_45
REMARK                            x       y       z     vdW  Elec       q    Type
REMARK                         _______ _______ _______ _____ _____    ______ ____
ROOT
ATOM      1  C   UNL     1     -14.987 -24.502   2.087  0.00  0.00    +0.000 C 
ATOM      2  C   UNL     1     -14.273 -24.968   2.933  0.00  0.00    +0.000 C 
ENDROOT
BRANCH   2   3
ATOM      3  N   UNL     1     -13.472 -25.492   3.884  0.00  0.00    +0.000 N 
ATOM      4  C   UNL     1     -13.536 -26.703   4.551  0.00  0.00    +0.000 C 
ATOM      5  O   UNL     1     -14.484 -27.481   4.503  0.00  0.00    +0.000 OA
BRANCH   4   6
ATOM      6  C   UNL     1     -12.414 -27.061   5.394  0.00  0.00    +0.000 C 
ATOM      7  C   UNL     1     -11.484 -27.345   6.100  0.00  0.00    +0.000 C 
BRANCH   7   8
ATOM      8  C   UNL     1     -10.362 -27.663   6.948  0.00  0.00    +0.000 C 
ATOM      9  O   UNL     1      -9.963 -26.825   7.744  0.00  0.00    +0.000 OA
ATOM     10  N   UNL     1      -9.834 -28.922   6.773  0.00  0.00    +0.000 N 
ATOM     11  H   UNL     1     -10.282 -29.502   6.075  0.00  0.00    +0.000 HD
BRANCH  10  12
ATOM     12  C   UNL     1      -8.794 -29.505   7.409  0.00  0.00    +0.000 C 
ATOM     13  C   UNL     1      -7.868 -30.018   7.975  0.00  0.00    +0.000 C 
BRANCH  13  14
ATOM     14  C   UNL     1      -6.683 -30.663   8.700  0.00  0.00    +0.000 C 
BRANCH  14  15
ATOM     15  C   UNL     1      -5.503 -31.316   9.424  0.00  0.00    +0.000 C 
ATOM     16  C   UNL     1      -4.579 -31.830   9.994  0.00  0.00    +0.000 C 
BRANCH  16  17
ATOM     17  N   UNL     1      -3.547 -32.410  10.635  0.00  0.00    +0.000 N 
ATOM     18  C   UNL     1      -3.397 -33.676  11.152  0.00  0.00    +0.000 C 
ATOM     19  O   UNL     1      -4.171 -34.616  11.159  0.00  0.00    +0.000 OA
ATOM     20  C   UNL     1      -2.102 -34.045  11.832  0.00  0.00    +0.000 C 
BRANCH  17  21
ATOM     21  O   UNL     1      -2.484 -31.478  10.753  0.00  0.00    +0.000 OA
ATOM     22  H   UNL     1      -2.048 -31.743  11.590  0.00  0.00    +0.000 HD
ENDBRANCH  17  21
ENDBRANCH  16  17
ENDBRANCH  14  15
ENDBRANCH  13  14
ENDBRANCH  10  12
ENDBRANCH   7   8
ENDBRANCH   4   6
BRANCH   3  23
ATOM     23  O   UNL     1     -12.230 -24.818   3.874  0.00  0.00    +0.000 OA
ATOM     24  H   UNL     1     -12.280 -24.308   4.704  0.00  0.00    +0.000 HD
ENDBRANCH   3  23
ENDBRANCH   2   3
BRANCH   1  25
ATOM     25  C   UNL     1     -15.904 -23.899   1.020  0.00  0.00    +0.000 C 
ATOM     26  C   UNL     1     -16.612 -23.428   0.174  0.00  0.00    +0.000 C 
BRANCH  26  27
ATOM     27  C   UNL     1     -17.507 -22.828  -0.916  0.00  0.00    +0.000 C 
BRANCH  27  28
ATOM     28  N   UNL     1     -18.293 -22.283  -1.870  0.00  0.00    +0.000 N 
ATOM     29  C   UNL     1     -19.296 -22.870  -2.605  0.00  0.00    +0.000 C 
ATOM     30  O   UNL     1     -19.661 -24.033  -2.517  0.00  0.00    +0.000 OA
ATOM     31  H   UNL     1     -18.110 -21.304  -2.052  0.00  0.00    +0.000 HD
BRANCH  29  32
ATOM     32  C   UNL     1     -19.953 -22.002  -3.552  0.00  0.00    +0.000 C 
ATOM     33  C   UNL     1     -20.479 -21.277  -4.352  0.00  0.00    +0.000 C 
BRANCH  33  34
ATOM     34  C   UNL     1     -21.099 -20.409  -5.333  0.00  0.00    +0.000 C 
ATOM     35  O   UNL     1     -22.324 -20.358  -5.354  0.00  0.00    +0.000 OA
ATOM     36  N   UNL     1     -20.262 -19.729  -6.202  0.00  0.00    +0.000 N 
BRANCH  36  37
ATOM     37  C   UNL     1     -20.530 -18.763  -7.105  0.00  0.00    +0.000 C 
ATOM     38  C   UNL     1     -20.767 -17.902  -7.906  0.00  0.00    +0.000 C 
BRANCH  38  39
ATOM     39  C   UNL     1     -21.075 -16.798  -8.924  0.00  0.00    +0.000 C 
ATOM     40  C   UNL     1     -21.314 -15.938  -9.725  0.00  0.00    +0.000 C 
BRANCH  40  41
ATOM     41  C   UNL     1     -21.618 -14.842 -10.750  0.00  0.00    +0.000 C 
BRANCH  41  42
ATOM     42  N   UNL     1     -21.907 -13.802 -11.724  0.00  0.00    +0.000 NA
ATOM     43  H   UNL     1     -21.945 -14.195 -12.663  0.00  0.00    +0.000 HD
ATOM     44  H   UNL     1     -22.826 -13.398 -11.550  0.00  0.00    +0.000 HD
ENDBRANCH  41  42
ENDBRANCH  40  41
ENDBRANCH  38  39
ENDBRANCH  36  37
BRANCH  36  45
ATOM     45  O   UNL     1     -18.879 -19.733  -5.913  0.00  0.00    +0.000 OA
ATOM     46  H   UNL     1     -18.842 -19.143  -5.137  0.00  0.00    +0.000 HD
ENDBRANCH  36  45
ENDBRANCH  33  34
ENDBRANCH  29  32
ENDBRANCH  27  28
ENDBRANCH  26  27
ENDBRANCH   1  25
TORSDOF 19
ENDMDL
MODEL 9
REMARK VINA RESULT:      -3.3      8.259      9.286
REMARK  Name = Deferoxamine.pdbqt.pdb
REMARK  19 active torsions:
REMARK  status: ('A' for Active; 'I' for Inactive)
REMARK    1  A    between atoms: C_1  and  C_2
REMARK    2  A    between atoms: C_3  and  C_4
REMARK    3  A    between atoms: C_4  and  N_5
REMARK    4  A    between atoms: C_6  and  C_9
REMARK    5  A    between atoms: C_10  and  C_11
REMARK    6  A    between atoms: N_13  and  O_14
REMARK    7  A    between atoms: N_13  and  C_16
REMARK    8  A    between atoms: C_17  and  C_18
REMARK    9  A    between atoms: C_19  and  C_20
REMARK   10  A    between atoms: C_20  and  N_21
REMARK   11  A    between atoms: C_24  and  N_25
REMARK   12  A    between atoms: N_25  and  O_28
REMARK   13  A    between atoms: C_26  and  C_30
REMARK   14  A    between atoms: C_31  and  C_32
REMARK   15  A    between atoms: N_34  and  C_36
REMARK   16  A    between atoms: C_37  and  C_38
REMARK   17  A    between atoms: C_38  and  C_39
REMARK   18  A    between atoms: C_40  and  N_41
REMARK   19  A    between atoms: N_41  and  O_45
REMARK                            x       y       z     vdW  Elec       q    Type
REMARK                         _______ _______ _______ _____ _____    ______ ____
ROOT
ATOM      1  C   UNL     1     -10.487 -18.824   4.056  0.00  0.00    +0.000 C 
ATOM      2  C   UNL     1     -11.291 -18.612   3.189  0.00  0.00    +0.000 C 
ENDROOT
BRANCH   2   3
ATOM      3  N   UNL     1     -12.194 -18.373   2.216  0.00  0.00    +0.000 N 
ATOM      4  C   UNL     1     -12.272 -17.349   1.288  0.00  0.00    +0.000 C 
ATOM      5  O   UNL     1     -11.580 -16.336   1.304  0.00  0.00    +0.000 OA
BRANCH   4   6
ATOM      6  C   UNL     1     -13.267 -17.469   0.243  0.00  0.00    +0.000 C 
ATOM      7  C   UNL     1     -14.103 -17.564  -0.615  0.00  0.00    +0.000 C 
BRANCH   7   8
ATOM      8  C   UNL     1     -15.122 -17.682  -1.628  0.00  0.00    +0.000 C 
ATOM      9  O   UNL     1     -15.341 -16.730  -2.363  0.00  0.00    +0.000 OA
ATOM     10  N   UNL     1     -15.769 -18.897  -1.669  0.00  0.00    +0.000 N 
ATOM     11  H   UNL     1     -15.467 -19.587  -0.993  0.00  0.00    +0.000 HD
BRANCH  10  12
ATOM     12  C   UNL     1     -16.756 -19.307  -2.495  0.00  0.00    +0.000 C 
ATOM     13  C   UNL     1     -17.634 -19.666  -3.230  0.00  0.00    +0.000 C 
BRANCH  13  14
ATOM     14  C   UNL     1     -18.753 -20.117  -4.174  0.00  0.00    +0.000 C 
BRANCH  14  15
ATOM     15  C   UNL     1     -19.871 -20.559  -5.123  0.00  0.00    +0.000 C 
ATOM     16  C   UNL     1     -20.749 -20.904  -5.866  0.00  0.00    +0.000 C 
BRANCH  16  17
ATOM     17  N   UNL     1     -21.735 -21.283  -6.701  0.00  0.00    +0.000 N 
ATOM     18  C   UNL     1     -21.763 -22.228  -7.700  0.00  0.00    +0.000 C 
ATOM     19  O   UNL     1     -20.889 -22.980  -8.092  0.00  0.00    +0.000 OA
ATOM     20  C   UNL     1     -23.035 -22.431  -8.485  0.00  0.00    +0.000 C 
BRANCH  17  21
ATOM     21  O   UNL     1     -22.900 -20.520  -6.429  0.00  0.00    +0.000 OA
ATOM     22  H   UNL     1     -22.684 -19.643  -6.808  0.00  0.00    +0.000 HD
ENDBRANCH  17  21
ENDBRANCH  16  17
ENDBRANCH  14  15
ENDBRANCH  13  14
ENDBRANCH  10  12
ENDBRANCH   7   8
ENDBRANCH   4   6
BRANCH   3  23
ATOM     23  O   UNL     1     -12.907 -19.561   1.937  0.00  0.00    +0.000 OA
ATOM     24  H   UNL     1     -13.740 -19.406   2.421  0.00  0.00    +0.000 HD
ENDBRANCH   3  23
ENDBRANCH   2   3
BRANCH   1  25
ATOM     25  C   UNL     1      -9.470 -19.084   5.171  0.00  0.00    +0.000 C 
ATOM     26  C   UNL     1      -8.670 -19.274   6.044  0.00  0.00    +0.000 C 
BRANCH  26  27
ATOM     27  C   UNL     1      -7.644 -19.504   7.160  0.00  0.00    +0.000 C 
BRANCH  27  28
ATOM     28  N   UNL     1      -6.754 -19.704   8.156  0.00  0.00    +0.000 N 
ATOM     29  C   UNL     1      -5.404 -19.952   8.074  0.00  0.00    +0.000 C 
ATOM     30  O   UNL     1      -4.754 -20.038   7.042  0.00  0.00    +0.000 OA
ATOM     31  H   UNL     1      -7.150 -19.654   9.086  0.00  0.00    +0.000 HD
BRANCH  29  32
ATOM     32  C   UNL     1      -4.731 -20.118   9.339  0.00  0.00    +0.000 C 
ATOM     33  C   UNL     1      -4.166 -20.279  10.386  0.00  0.00    +0.000 C 
BRANCH  33  34
ATOM     34  C   UNL     1      -3.472 -20.489  11.640  0.00  0.00    +0.000 C 
ATOM     35  O   UNL     1      -2.445 -19.847  11.837  0.00  0.00    +0.000 OA
ATOM     36  N   UNL     1      -3.997 -21.429  12.511  0.00  0.00    +0.000 N 
BRANCH  36  37
ATOM     37  C   UNL     1      -3.664 -21.734  13.782  0.00  0.00    +0.000 C 
ATOM     38  C   UNL     1      -3.367 -22.002  14.913  0.00  0.00    +0.000 C 
BRANCH  38  39
ATOM     39  C   UNL     1      -2.982 -22.340  16.358  0.00  0.00    +0.000 C 
ATOM     40  C   UNL     1      -2.679 -22.599  17.489  0.00  0.00    +0.000 C 
BRANCH  40  41
ATOM     41  C   UNL     1      -2.289 -22.927  18.933  0.00  0.00    +0.000 C 
BRANCH  41  42
ATOM     42  N   UNL     1      -1.918 -23.238  20.304  0.00  0.00    +0.000 NA
ATOM     43  H   UNL     1      -1.237 -22.564  20.649  0.00  0.00    +0.000 HD
ATOM     44  H   UNL     1      -2.728 -23.159  20.917  0.00  0.00    +0.000 HD
ENDBRANCH  41  42
ENDBRANCH  40  41
ENDBRANCH  38  39
ENDBRANCH  36  37
BRANCH  36  45
ATOM     45  O   UNL     1      -5.290 -21.926  12.231  0.00  0.00    +0.000 OA
ATOM     46  H   UNL     1      -5.157 -22.329  11.353  0.00  0.00    +0.000 HD
ENDBRANCH  36  45
ENDBRANCH  33  34
ENDBRANCH  29  32
ENDBRANCH  27  28
ENDBRANCH  26  27
ENDBRANCH   1  25
TORSDOF 19
ENDMDL
