MODEL 1
REMARK VINA RESULT:      -6.0      0.000      0.000
REMARK  Name = 
REMARK  25 active torsions:
REMARK  status: ('A' for Active; 'I' for Inactive)
REMARK    1  A    between atoms: O_2  and  C_17
REMARK    2  A    between atoms: O_2  and  C_36
REMARK    3  A    between atoms: O_3  and  C_20
REMARK    4  A    between atoms: O_3  and  C_37
REMARK    5  A    between atoms: O_4  and  C_21
REMARK    6  A    between atoms: O_5  and  C_22
REMARK    7  A    between atoms: O_7  and  C_30
REMARK    8  A    between atoms: O_8  and  C_31
REMARK    9  A    between atoms: O_8  and  C_39
REMARK   10  A    between atoms: O_12  and  C_41
REMARK   11  A    between atoms: O_13  and  C_51
REMARK   12  A    between atoms: O_13  and  C_55
REMARK   13  A    between atoms: N_15  and  C_44
REMARK   14  A    between atoms: C_18  and  C_29
REMARK   15  A    between atoms: C_24  and  C_33
REMARK   16  A    between atoms: C_24  and  C_34
REMARK   17  A    between atoms: C_32  and  C_35
REMARK   18  A    between atoms: C_36  and  C_38
REMARK   19  A    between atoms: C_37  and  C_40
REMARK   20  A    between atoms: C_39  and  C_41
REMARK   21  A    between atoms: C_41  and  C_44
REMARK   22  A    between atoms: C_44  and  C_48
REMARK   23  A    between atoms: C_55  and  C_56
REMARK   24  A    between atoms: C_55  and  C_57
REMARK   25  A    between atoms: C_55  and  C_58
REMARK                            x       y       z     vdW  Elec       q    Type
REMARK                         _______ _______ _______ _____ _____    ______ ____
ROOT
ATOM      1  O   UNL     1      -5.485 -40.162   1.422  0.00  0.00    +0.000 OA
ATOM      2  O   UNL     1      -9.402 -34.709   1.713  0.00  0.00    +0.000 OA
ATOM      3  C   UNL     1      -7.323 -37.929  -0.447  0.00  0.00    +0.000 C 
ATOM      4  C   UNL     1      -6.013 -38.629   0.020  0.00  0.00    +0.000 C 
ATOM      5  C   UNL     1      -7.625 -36.474   0.734  0.00  0.00    +0.000 C 
ATOM      6  C   UNL     1      -6.563 -39.188   1.396  0.00  0.00    +0.000 C 
ATOM      7  C   UNL     1      -7.392 -37.734  -2.299  0.00  0.00    +0.000 C 
ATOM      8  C   UNL     1      -8.481 -37.016  -3.673  0.00  0.00    +0.000 C 
ATOM      9  C   UNL     1      -7.789 -37.167   2.150  0.00  0.00    +0.000 C 
ATOM     10  C   UNL     1      -6.674 -38.189   2.529  0.00  0.00    +0.000 C 
ATOM     11  C   UNL     1      -9.868 -35.918  -3.527  0.00  0.00    +0.000 C 
ATOM     12  C   UNL     1      -5.578 -40.147  -0.058  0.00  0.00    +0.000 C 
ATOM     13  C   UNL     1      -8.964 -35.156   0.630  0.00  0.00    +0.000 C 
ATOM     14  C   UNL     1      -7.503 -36.116  -4.560  0.00  0.00    +0.000 C 
ATOM     15  C   UNL     1      -9.498 -34.609  -2.683  0.00  0.00    +0.000 C 
ATOM     16  C   UNL     1      -6.335 -35.570   0.919  0.00  0.00    +0.000 C 
ATOM     17  C   UNL     1      -9.765 -34.382  -0.932  0.00  0.00    +0.000 C 
ATOM     18  C   UNL     1      -7.460 -34.547  -4.268  0.00  0.00    +0.000 C 
ATOM     19  C   UNL     1      -8.491 -33.889  -3.282  0.00  0.00    +0.000 C 
ATOM     20  C   UNL     1     -10.237 -35.424  -5.015  0.00  0.00    +0.000 C 
ATOM     21  C   UNL     1     -11.283 -36.509  -3.227  0.00  0.00    +0.000 C 
ATOM     22  C   UNL     1      -8.120 -32.495  -2.841  0.00  0.00    +0.000 C 
ENDROOT
BRANCH  17  23
ATOM     23  O   UNL     1     -11.176 -34.207  -0.799  0.00  0.00    +0.000 OA
ATOM     24  H   UNL     1     -11.379 -33.403  -1.313  0.00  0.00    +0.000 HD
ENDBRANCH  17  23
BRANCH   9  25
ATOM     25  O   UNL     1      -9.026 -37.880   2.169  0.00  0.00    +0.000 OA
ATOM     26  H   UNL     1      -9.539 -37.543   2.925  0.00  0.00    +0.000 HD
ENDBRANCH   9  25
BRANCH   8  27
ATOM     27  O   UNL     1      -8.843 -38.153  -4.481  0.00  0.00    +0.000 OA
ATOM     28  H   UNL     1      -9.337 -38.789  -3.934  0.00  0.00    +0.000 HD
ENDBRANCH   8  27
BRANCH  18  29
ATOM     29  O   UNL     1      -6.132 -34.230  -3.760  0.00  0.00    +0.000 OA
BRANCH  29  31
ATOM     30  O   UNL     1      -5.565 -32.940  -5.525  0.00  0.00    +0.000 OA
ATOM     31  C   UNL     1      -5.231 -33.709  -4.629  0.00  0.00    +0.000 C 
BRANCH  31  32
ATOM     32  C   UNL     1      -3.811 -34.275  -4.514  0.00  0.00    +0.000 C 
BRANCH  32  33
ATOM     33  O   UNL     1      -2.783 -33.312  -4.254  0.00  0.00    +0.000 OA
ATOM     34  H   UNL     1      -3.179 -32.439  -4.438  0.00  0.00    +0.000 HD
ENDBRANCH  32  33
BRANCH  32  35
ATOM     35  C   UNL     1      -3.507 -35.102  -5.791  0.00  0.00    +0.000 C 
BRANCH  35  36
ATOM     36  C   UNL     1      -2.689 -36.355  -5.499  0.00  0.00    +0.000 A 
ATOM     37  C   UNL     1      -2.170 -36.560  -4.210  0.00  0.00    +0.000 A 
ATOM     38  C   UNL     1      -2.467 -37.342  -6.475  0.00  0.00    +0.000 A 
ATOM     39  C   UNL     1      -1.427 -37.704  -3.913  0.00  0.00    +0.000 A 
ATOM     40  C   UNL     1      -1.723 -38.485  -6.174  0.00  0.00    +0.000 A 
ATOM     41  C   UNL     1      -1.202 -38.664  -4.895  0.00  0.00    +0.000 A 
ENDBRANCH  35  36
BRANCH  35  43
ATOM     42  O   UNL     1      -4.421 -34.322  -8.402  0.00  0.00    +0.000 OA
ATOM     43  N   UNL     1      -2.803 -34.305  -6.787  0.00  0.00    +0.000 N 
ATOM     44  C   UNL     1      -3.283 -34.081  -8.036  0.00  0.00    +0.000 C 
ATOM     45  H   UNL     1      -1.809 -34.167  -6.659  0.00  0.00    +0.000 HD
BRANCH  44  46
ATOM     46  O   UNL     1      -2.304 -33.527  -8.782  0.00  0.00    +0.000 OA
BRANCH  46  47
ATOM     47  C   UNL     1      -1.735 -34.243  -9.909  0.00  0.00    +0.000 C 
ATOM     48  C   UNL     1      -0.415 -33.612 -10.364  0.00  0.00    +0.000 C 
ATOM     49  C   UNL     1      -1.445 -35.651  -9.368  0.00  0.00    +0.000 C 
ATOM     50  C   UNL     1      -2.742 -34.357 -11.059  0.00  0.00    +0.000 C 
ENDBRANCH  46  47
ENDBRANCH  44  46
ENDBRANCH  35  43
ENDBRANCH  32  35
ENDBRANCH  31  32
ENDBRANCH  29  31
ENDBRANCH  18  29
BRANCH   7  51
ATOM     51  O   UNL     1      -6.886 -36.534  -2.103  0.00  0.00    +0.000 OA
BRANCH  51  53
ATOM     52  O   UNL     1      -4.935 -36.065  -2.046  0.00  0.00    +0.000 OA
ATOM     53  C   UNL     1      -5.639 -36.975  -2.472  0.00  0.00    +0.000 C 
BRANCH  53  54
ATOM     54  C   UNL     1      -5.327 -38.467  -3.633  0.00  0.00    +0.000 A 
ATOM     55  C   UNL     1      -5.593 -38.491  -5.072  0.00  0.00    +0.000 A 
ATOM     56  C   UNL     1      -4.681 -39.700  -3.309  0.00  0.00    +0.000 A 
ATOM     57  C   UNL     1      -5.280 -39.530  -5.986  0.00  0.00    +0.000 A 
ATOM     58  C   UNL     1      -4.359 -40.754  -4.213  0.00  0.00    +0.000 A 
ATOM     59  C   UNL     1      -4.657 -40.671  -5.551  0.00  0.00    +0.000 A 
ENDBRANCH  53  54
ENDBRANCH  51  53
ENDBRANCH   7  51
BRANCH   4  60
ATOM     60  O   UNL     1      -4.909 -37.704   0.153  0.00  0.00    +0.000 OA
BRANCH  60  62
ATOM     61  O   UNL     1      -3.272 -37.977   1.653  0.00  0.00    +0.000 OA
ATOM     62  C   UNL     1      -3.648 -38.067   0.487  0.00  0.00    +0.000 C 
ATOM     63  C   UNL     1      -2.696 -38.462  -0.597  0.00  0.00    +0.000 C 
ENDBRANCH  60  62
ENDBRANCH   4  60
TORSDOF 17
ENDMDL
MODEL 2
REMARK VINA RESULT:      -5.8      2.960      6.738
REMARK  Name = 
REMARK  25 active torsions:
REMARK  status: ('A' for Active; 'I' for Inactive)
REMARK    1  A    between atoms: O_2  and  C_17
REMARK    2  A    between atoms: O_2  and  C_36
REMARK    3  A    between atoms: O_3  and  C_20
REMARK    4  A    between atoms: O_3  and  C_37
REMARK    5  A    between atoms: O_4  and  C_21
REMARK    6  A    between atoms: O_5  and  C_22
REMARK    7  A    between atoms: O_7  and  C_30
REMARK    8  A    between atoms: O_8  and  C_31
REMARK    9  A    between atoms: O_8  and  C_39
REMARK   10  A    between atoms: O_12  and  C_41
REMARK   11  A    between atoms: O_13  and  C_51
REMARK   12  A    between atoms: O_13  and  C_55
REMARK   13  A    between atoms: N_15  and  C_44
REMARK   14  A    between atoms: C_18  and  C_29
REMARK   15  A    between atoms: C_24  and  C_33
REMARK   16  A    between atoms: C_24  and  C_34
REMARK   17  A    between atoms: C_32  and  C_35
REMARK   18  A    between atoms: C_36  and  C_38
REMARK   19  A    between atoms: C_37  and  C_40
REMARK   20  A    between atoms: C_39  and  C_41
REMARK   21  A    between atoms: C_41  and  C_44
REMARK   22  A    between atoms: C_44  and  C_48
REMARK   23  A    between atoms: C_55  and  C_56
REMARK   24  A    between atoms: C_55  and  C_57
REMARK   25  A    between atoms: C_55  and  C_58
REMARK                            x       y       z     vdW  Elec       q    Type
REMARK                         _______ _______ _______ _____ _____    ______ ____
ROOT
ATOM      1  O   UNL     1     -11.962 -36.305  -6.941  0.00  0.00    +0.000 OA
ATOM      2  O   UNL     1     -13.345 -35.815  -0.383  0.00  0.00    +0.000 OA
ATOM      3  C   UNL     1     -10.862 -35.044  -3.931  0.00  0.00    +0.000 C 
ATOM      4  C   UNL     1     -10.777 -35.958  -5.189  0.00  0.00    +0.000 C 
ATOM      5  C   UNL     1     -11.885 -35.979  -2.635  0.00  0.00    +0.000 C 
ATOM      6  C   UNL     1     -12.307 -35.888  -5.591  0.00  0.00    +0.000 C 
ATOM      7  C   UNL     1      -9.221 -34.259  -3.522  0.00  0.00    +0.000 C 
ATOM      8  C   UNL     1      -8.399 -33.125  -2.248  0.00  0.00    +0.000 C 
ATOM      9  C   UNL     1     -13.295 -36.168  -3.333  0.00  0.00    +0.000 C 
ATOM     10  C   UNL     1     -13.253 -36.748  -4.780  0.00  0.00    +0.000 C 
ATOM     11  C   UNL     1      -9.019 -32.599  -0.670  0.00  0.00    +0.000 C 
ATOM     12  C   UNL     1     -10.684 -35.586  -6.723  0.00  0.00    +0.000 C 
ATOM     13  C   UNL     1     -12.237 -35.478  -0.855  0.00  0.00    +0.000 C 
ATOM     14  C   UNL     1      -7.077 -33.896  -1.787  0.00  0.00    +0.000 C 
ATOM     15  C   UNL     1      -9.462 -33.843   0.234  0.00  0.00    +0.000 C 
ATOM     16  C   UNL     1     -11.380 -37.469  -2.427  0.00  0.00    +0.000 C 
ATOM     17  C   UNL     1     -11.114 -34.510   0.362  0.00  0.00    +0.000 C 
ATOM     18  C   UNL     1      -7.145 -34.758  -0.444  0.00  0.00    +0.000 C 
ATOM     19  C   UNL     1      -8.405 -34.684   0.491  0.00  0.00    +0.000 C 
ATOM     20  C   UNL     1      -7.803 -31.874   0.098  0.00  0.00    +0.000 C 
ATOM     21  C   UNL     1      -9.977 -31.367  -0.597  0.00  0.00    +0.000 C 
ATOM     22  C   UNL     1      -8.479 -35.789   1.515  0.00  0.00    +0.000 C 
ENDROOT
BRANCH  17  23
ATOM     23  O   UNL     1     -11.836 -33.548   1.132  0.00  0.00    +0.000 OA
ATOM     24  H   UNL     1     -12.466 -33.146   0.505  0.00  0.00    +0.000 HD
ENDBRANCH  17  23
BRANCH   9  25
ATOM     25  O   UNL     1     -13.937 -34.895  -3.417  0.00  0.00    +0.000 OA
ATOM     26  H   UNL     1     -13.323 -34.296  -3.880  0.00  0.00    +0.000 HD
ENDBRANCH   9  25
BRANCH   8  27
ATOM     27  O   UNL     1      -7.965 -31.979  -3.007  0.00  0.00    +0.000 OA
ATOM     28  H   UNL     1      -7.470 -31.378  -2.423  0.00  0.00    +0.000 HD
ENDBRANCH   8  27
BRANCH  18  29
ATOM     29  O   UNL     1      -6.976 -36.157  -0.811  0.00  0.00    +0.000 OA
BRANCH  29  31
ATOM     30  O   UNL     1      -5.081 -36.570   0.348  0.00  0.00    +0.000 OA
ATOM     31  C   UNL     1      -5.740 -36.700  -0.679  0.00  0.00    +0.000 C 
BRANCH  31  32
ATOM     32  C   UNL     1      -5.168 -37.337  -1.951  0.00  0.00    +0.000 C 
BRANCH  32  33
ATOM     33  O   UNL     1      -5.262 -38.765  -2.021  0.00  0.00    +0.000 OA
ATOM     34  H   UNL     1      -6.215 -38.973  -1.995  0.00  0.00    +0.000 HD
ENDBRANCH  32  33
BRANCH  32  35
ATOM     35  C   UNL     1      -3.704 -36.854  -2.127  0.00  0.00    +0.000 C 
BRANCH  35  36
ATOM     36  C   UNL     1      -3.402 -36.402  -3.551  0.00  0.00    +0.000 A 
ATOM     37  C   UNL     1      -3.966 -37.097  -4.633  0.00  0.00    +0.000 A 
ATOM     38  C   UNL     1      -2.599 -35.281  -3.821  0.00  0.00    +0.000 A 
ATOM     39  C   UNL     1      -3.714 -36.698  -5.948  0.00  0.00    +0.000 A 
ATOM     40  C   UNL     1      -2.349 -34.884  -5.136  0.00  0.00    +0.000 A 
ATOM     41  C   UNL     1      -2.903 -35.595  -6.199  0.00  0.00    +0.000 A 
ENDBRANCH  35  36
BRANCH  35  43
ATOM     42  O   UNL     1      -1.884 -36.863   0.097  0.00  0.00    +0.000 OA
ATOM     43  N   UNL     1      -2.752 -37.890  -1.751  0.00  0.00    +0.000 N 
ATOM     44  C   UNL     1      -1.859 -37.750  -0.739  0.00  0.00    +0.000 C 
ATOM     45  H   UNL     1      -2.541 -38.602  -2.438  0.00  0.00    +0.000 HD
BRANCH  44  46
ATOM     46  O   UNL     1      -0.971 -38.765  -0.803  0.00  0.00    +0.000 OA
BRANCH  46  47
ATOM     47  C   UNL     1      -1.251 -40.037  -0.163  0.00  0.00    +0.000 C 
ATOM     48  C   UNL     1      -0.292 -41.129  -0.646  0.00  0.00    +0.000 C 
ATOM     49  C   UNL     1      -0.997 -39.785   1.331  0.00  0.00    +0.000 C 
ATOM     50  C   UNL     1      -2.718 -40.440  -0.349  0.00  0.00    +0.000 C 
ENDBRANCH  46  47
ENDBRANCH  44  46
ENDBRANCH  35  43
ENDBRANCH  32  35
ENDBRANCH  31  32
ENDBRANCH  29  31
ENDBRANCH  18  29
BRANCH   7  51
ATOM     51  O   UNL     1      -9.039 -35.274  -2.704  0.00  0.00    +0.000 OA
BRANCH  51  53
ATOM     52  O   UNL     1      -8.123 -37.010  -3.125  0.00  0.00    +0.000 OA
ATOM     53  C   UNL     1      -8.214 -35.889  -3.614  0.00  0.00    +0.000 C 
BRANCH  53  54
ATOM     54  C   UNL     1      -7.289 -34.969  -5.017  0.00  0.00    +0.000 A 
ATOM     55  C   UNL     1      -6.322 -33.887  -4.827  0.00  0.00    +0.000 A 
ATOM     56  C   UNL     1      -7.295 -35.279  -6.411  0.00  0.00    +0.000 A 
ATOM     57  C   UNL     1      -5.536 -33.252  -5.822  0.00  0.00    +0.000 A 
ATOM     58  C   UNL     1      -6.514 -34.653  -7.426  0.00  0.00    +0.000 A 
ATOM     59  C   UNL     1      -5.633 -33.640  -7.134  0.00  0.00    +0.000 A 
ENDBRANCH  53  54
ENDBRANCH  51  53
ENDBRANCH   7  51
BRANCH   4  60
ATOM     60  O   UNL     1     -10.305 -37.289  -4.874  0.00  0.00    +0.000 OA
BRANCH  60  62
ATOM     61  O   UNL     1     -10.911 -39.069  -6.086  0.00  0.00    +0.000 OA
ATOM     62  C   UNL     1     -10.047 -38.243  -5.799  0.00  0.00    +0.000 C 
ATOM     63  C   UNL     1      -8.669 -38.346  -6.371  0.00  0.00    +0.000 C 
ENDBRANCH  60  62
ENDBRANCH   4  60
TORSDOF 17
ENDMDL
MODEL 3
REMARK VINA RESULT:      -5.6      2.645      6.272
REMARK  Name = 
REMARK  25 active torsions:
REMARK  status: ('A' for Active; 'I' for Inactive)
REMARK    1  A    between atoms: O_2  and  C_17
REMARK    2  A    between atoms: O_2  and  C_36
REMARK    3  A    between atoms: O_3  and  C_20
REMARK    4  A    between atoms: O_3  and  C_37
REMARK    5  A    between atoms: O_4  and  C_21
REMARK    6  A    between atoms: O_5  and  C_22
REMARK    7  A    between atoms: O_7  and  C_30
REMARK    8  A    between atoms: O_8  and  C_31
REMARK    9  A    between atoms: O_8  and  C_39
REMARK   10  A    between atoms: O_12  and  C_41
REMARK   11  A    between atoms: O_13  and  C_51
REMARK   12  A    between atoms: O_13  and  C_55
REMARK   13  A    between atoms: N_15  and  C_44
REMARK   14  A    between atoms: C_18  and  C_29
REMARK   15  A    between atoms: C_24  and  C_33
REMARK   16  A    between atoms: C_24  and  C_34
REMARK   17  A    between atoms: C_32  and  C_35
REMARK   18  A    between atoms: C_36  and  C_38
REMARK   19  A    between atoms: C_37  and  C_40
REMARK   20  A    between atoms: C_39  and  C_41
REMARK   21  A    between atoms: C_41  and  C_44
REMARK   22  A    between atoms: C_44  and  C_48
REMARK   23  A    between atoms: C_55  and  C_56
REMARK   24  A    between atoms: C_55  and  C_57
REMARK   25  A    between atoms: C_55  and  C_58
REMARK                            x       y       z     vdW  Elec       q    Type
REMARK                         _______ _______ _______ _____ _____    ______ ____
ROOT
ATOM      1  O   UNL     1     -11.974 -36.423  -7.035  0.00  0.00    +0.000 OA
ATOM      2  O   UNL     1     -12.665 -36.058  -0.360  0.00  0.00    +0.000 OA
ATOM      3  C   UNL     1     -10.612 -35.145  -4.142  0.00  0.00    +0.000 C 
ATOM      4  C   UNL     1     -10.624 -36.042  -5.415  0.00  0.00    +0.000 C 
ATOM      5  C   UNL     1     -11.449 -36.137  -2.758  0.00  0.00    +0.000 C 
ATOM      6  C   UNL     1     -12.190 -36.035  -5.650  0.00  0.00    +0.000 C 
ATOM      7  C   UNL     1      -8.971 -34.293  -3.899  0.00  0.00    +0.000 C 
ATOM      8  C   UNL     1      -8.066 -33.136  -2.704  0.00  0.00    +0.000 C 
ATOM      9  C   UNL     1     -12.917 -36.380  -3.304  0.00  0.00    +0.000 C 
ATOM     10  C   UNL     1     -13.006 -36.943  -4.756  0.00  0.00    +0.000 C 
ATOM     11  C   UNL     1      -8.536 -32.653  -1.061  0.00  0.00    +0.000 C 
ATOM     12  C   UNL     1     -10.711 -35.651  -6.944  0.00  0.00    +0.000 C 
ATOM     13  C   UNL     1     -11.629 -35.669  -0.943  0.00  0.00    +0.000 C 
ATOM     14  C   UNL     1      -6.671 -33.853  -2.397  0.00  0.00    +0.000 C 
ATOM     15  C   UNL     1      -8.826 -33.924  -0.133  0.00  0.00    +0.000 C 
ATOM     16  C   UNL     1     -10.862 -37.604  -2.627  0.00  0.00    +0.000 C 
ATOM     17  C   UNL     1     -10.424 -34.664   0.161  0.00  0.00    +0.000 C 
ATOM     18  C   UNL     1      -6.557 -34.730  -1.068  0.00  0.00    +0.000 C 
ATOM     19  C   UNL     1      -7.712 -34.720  -0.003  0.00  0.00    +0.000 C 
ATOM     20  C   UNL     1      -7.276 -31.884  -0.417  0.00  0.00    +0.000 C 
ATOM     21  C   UNL     1      -9.531 -31.465  -0.869  0.00  0.00    +0.000 C 
ATOM     22  C   UNL     1      -7.629 -35.838   1.007  0.00  0.00    +0.000 C 
ENDROOT
BRANCH  17  23
ATOM     23  O   UNL     1     -11.100 -33.743   1.017  0.00  0.00    +0.000 OA
ATOM     24  H   UNL     1     -10.500 -32.977   1.086  0.00  0.00    +0.000 HD
ENDBRANCH  17  23
BRANCH   9  25
ATOM     25  O   UNL     1     -13.617 -35.135  -3.300  0.00  0.00    +0.000 OA
ATOM     26  H   UNL     1     -13.982 -35.016  -2.405  0.00  0.00    +0.000 HD
ENDBRANCH   9  25
BRANCH   8  27
ATOM     27  O   UNL     1      -7.766 -31.965  -3.488  0.00  0.00    +0.000 OA
ATOM     28  H   UNL     1      -7.895 -32.172  -4.431  0.00  0.00    +0.000 HD
ENDBRANCH   8  27
BRANCH  18  29
ATOM     29  O   UNL     1      -6.369 -36.117  -1.471  0.00  0.00    +0.000 OA
BRANCH  29  31
ATOM     30  O   UNL     1      -4.843 -36.677   0.097  0.00  0.00    +0.000 OA
ATOM     31  C   UNL     1      -5.239 -36.746  -1.062  0.00  0.00    +0.000 C 
BRANCH  31  32
ATOM     32  C   UNL     1      -4.418 -37.403  -2.178  0.00  0.00    +0.000 C 
BRANCH  32  33
ATOM     33  O   UNL     1      -4.178 -38.806  -2.022  0.00  0.00    +0.000 OA
ATOM     34  H   UNL     1      -4.267 -39.195  -2.912  0.00  0.00    +0.000 HD
ENDBRANCH  32  33
BRANCH  32  35
ATOM     35  C   UNL     1      -3.092 -36.612  -2.341  0.00  0.00    +0.000 C 
BRANCH  35  36
ATOM     36  C   UNL     1      -3.053 -35.790  -3.624  0.00  0.00    +0.000 A 
ATOM     37  C   UNL     1      -2.884 -36.438  -4.859  0.00  0.00    +0.000 A 
ATOM     38  C   UNL     1      -3.219 -34.395  -3.618  0.00  0.00    +0.000 A 
ATOM     39  C   UNL     1      -2.856 -35.710  -6.050  0.00  0.00    +0.000 A 
ATOM     40  C   UNL     1      -3.189 -33.669  -4.811  0.00  0.00    +0.000 A 
ATOM     41  C   UNL     1      -3.004 -34.326  -6.025  0.00  0.00    +0.000 A 
ENDBRANCH  35  36
BRANCH  35  43
ATOM     42  O   UNL     1      -1.828 -37.808  -0.055  0.00  0.00    +0.000 OA
ATOM     43  N   UNL     1      -1.937 -37.499  -2.317  0.00  0.00    +0.000 N 
ATOM     44  C   UNL     1      -1.351 -37.927  -1.170  0.00  0.00    +0.000 C 
ATOM     45  H   UNL     1      -1.374 -37.557  -3.155  0.00  0.00    +0.000 HD
BRANCH  44  46
ATOM     46  O   UNL     1      -0.179 -38.521  -1.481  0.00  0.00    +0.000 OA
BRANCH  46  47
ATOM     47  C   UNL     1      -0.134 -39.923  -1.854  0.00  0.00    +0.000 C 
ATOM     48  C   UNL     1      -1.099 -40.226  -3.005  0.00  0.00    +0.000 C 
ATOM     49  C   UNL     1       1.303 -40.150  -2.346  0.00  0.00    +0.000 C 
ATOM     50  C   UNL     1      -0.386 -40.827  -0.642  0.00  0.00    +0.000 C 
ENDBRANCH  46  47
ENDBRANCH  44  46
ENDBRANCH  35  43
ENDBRANCH  32  35
ENDBRANCH  31  32
ENDBRANCH  29  31
ENDBRANCH  18  29
BRANCH   7  51
ATOM     51  O   UNL     1      -8.660 -35.307  -3.120  0.00  0.00    +0.000 OA
BRANCH  51  53
ATOM     52  O   UNL     1      -7.758 -34.857  -4.857  0.00  0.00    +0.000 OA
ATOM     53  C   UNL     1      -7.785 -35.791  -4.062  0.00  0.00    +0.000 C 
BRANCH  53  54
ATOM     54  C   UNL     1      -7.150 -37.598  -4.109  0.00  0.00    +0.000 A 
ATOM     55  C   UNL     1      -7.625 -38.686  -3.253  0.00  0.00    +0.000 A 
ATOM     56  C   UNL     1      -6.243 -38.177  -5.049  0.00  0.00    +0.000 A 
ATOM     57  C   UNL     1      -7.265 -40.055  -3.323  0.00  0.00    +0.000 A 
ATOM     58  C   UNL     1      -5.868 -39.549  -5.136  0.00  0.00    +0.000 A 
ATOM     59  C   UNL     1      -6.378 -40.490  -4.275  0.00  0.00    +0.000 A 
ENDBRANCH  53  54
ENDBRANCH  51  53
ENDBRANCH   7  51
BRANCH   4  60
ATOM     60  O   UNL     1     -10.064 -37.354  -5.171  0.00  0.00    +0.000 OA
BRANCH  60  62
ATOM     61  O   UNL     1      -9.026 -37.981  -7.051  0.00  0.00    +0.000 OA
ATOM     62  C   UNL     1      -9.803 -38.261  -6.141  0.00  0.00    +0.000 C 
ATOM     63  C   UNL     1     -10.559 -39.552  -6.150  0.00  0.00    +0.000 C 
ENDBRANCH  60  62
ENDBRANCH   4  60
TORSDOF 17
ENDMDL
MODEL 4
REMARK VINA RESULT:      -5.6     20.754     24.674
REMARK  Name = 
REMARK  25 active torsions:
REMARK  status: ('A' for Active; 'I' for Inactive)
REMARK    1  A    between atoms: O_2  and  C_17
REMARK    2  A    between atoms: O_2  and  C_36
REMARK    3  A    between atoms: O_3  and  C_20
REMARK    4  A    between atoms: O_3  and  C_37
REMARK    5  A    between atoms: O_4  and  C_21
REMARK    6  A    between atoms: O_5  and  C_22
REMARK    7  A    between atoms: O_7  and  C_30
REMARK    8  A    between atoms: O_8  and  C_31
REMARK    9  A    between atoms: O_8  and  C_39
REMARK   10  A    between atoms: O_12  and  C_41
REMARK   11  A    between atoms: O_13  and  C_51
REMARK   12  A    between atoms: O_13  and  C_55
REMARK   13  A    between atoms: N_15  and  C_44
REMARK   14  A    between atoms: C_18  and  C_29
REMARK   15  A    between atoms: C_24  and  C_33
REMARK   16  A    between atoms: C_24  and  C_34
REMARK   17  A    between atoms: C_32  and  C_35
REMARK   18  A    between atoms: C_36  and  C_38
REMARK   19  A    between atoms: C_37  and  C_40
REMARK   20  A    between atoms: C_39  and  C_41
REMARK   21  A    between atoms: C_41  and  C_44
REMARK   22  A    between atoms: C_44  and  C_48
REMARK   23  A    between atoms: C_55  and  C_56
REMARK   24  A    between atoms: C_55  and  C_57
REMARK   25  A    between atoms: C_55  and  C_58
REMARK                            x       y       z     vdW  Elec       q    Type
REMARK                         _______ _______ _______ _____ _____    ______ ____
ROOT
ATOM      1  O   UNL     1     -11.121 -16.820 -17.659  0.00  0.00    +0.000 OA
ATOM      2  O   UNL     1      -6.310 -17.345 -22.321  0.00  0.00    +0.000 OA
ATOM      3  C   UNL     1      -7.941 -17.982 -18.285  0.00  0.00    +0.000 C 
ATOM      4  C   UNL     1      -8.995 -17.074 -17.584  0.00  0.00    +0.000 C 
ATOM      5  C   UNL     1      -7.434 -17.104 -19.890  0.00  0.00    +0.000 C 
ATOM      6  C   UNL     1     -10.150 -17.247 -18.653  0.00  0.00    +0.000 C 
ATOM      7  C   UNL     1      -6.685 -18.655 -17.084  0.00  0.00    +0.000 C 
ATOM      8  C   UNL     1      -5.122 -19.723 -17.019  0.00  0.00    +0.000 C 
ATOM      9  C   UNL     1      -8.786 -17.013 -20.712  0.00  0.00    +0.000 C 
ATOM     10  C   UNL     1     -10.009 -16.444 -19.929  0.00  0.00    +0.000 C 
ATOM     11  C   UNL     1      -4.101 -20.276 -18.362  0.00  0.00    +0.000 C 
ATOM     12  C   UNL     1     -10.223 -17.452 -16.663  0.00  0.00    +0.000 C 
ATOM     13  C   UNL     1      -6.101 -17.613 -21.117  0.00  0.00    +0.000 C 
ATOM     14  C   UNL     1      -4.057 -18.864 -16.193  0.00  0.00    +0.000 C 
ATOM     15  C   UNL     1      -3.628 -19.055 -19.283  0.00  0.00    +0.000 C 
ATOM     16  C   UNL     1      -7.051 -15.584 -19.651  0.00  0.00    +0.000 C 
ATOM     17  C   UNL     1      -4.432 -18.496 -20.776  0.00  0.00    +0.000 C 
ATOM     18  C   UNL     1      -2.997 -17.997 -17.014  0.00  0.00    +0.000 C 
ATOM     19  C   UNL     1      -2.880 -18.146 -18.573  0.00  0.00    +0.000 C 
ATOM     20  C   UNL     1      -2.772 -20.913 -17.713  0.00  0.00    +0.000 C 
ATOM     21  C   UNL     1      -4.501 -21.566 -19.145  0.00  0.00    +0.000 C 
ATOM     22  C   UNL     1      -2.102 -17.039 -19.242  0.00  0.00    +0.000 C 
ENDROOT
BRANCH  17  23
ATOM     23  O   UNL     1      -4.129 -19.496 -21.749  0.00  0.00    +0.000 OA
ATOM     24  H   UNL     1      -3.556 -20.134 -21.284  0.00  0.00    +0.000 HD
ENDBRANCH  17  23
BRANCH   9  25
ATOM     25  O   UNL     1      -9.148 -18.326 -21.143  0.00  0.00    +0.000 OA
ATOM     26  H   UNL     1      -8.648 -18.955 -20.591  0.00  0.00    +0.000 HD
ENDBRANCH   9  25
BRANCH   8  27
ATOM     27  O   UNL     1      -5.482 -20.844 -16.188  0.00  0.00    +0.000 OA
ATOM     28  H   UNL     1      -6.400 -21.104 -16.384  0.00  0.00    +0.000 HD
ENDBRANCH   8  27
BRANCH  18  29
ATOM     29  O   UNL     1      -3.274 -16.593 -16.745  0.00  0.00    +0.000 OA
BRANCH  29  31
ATOM     30  O   UNL     1      -2.099 -14.779 -16.089  0.00  0.00    +0.000 OA
ATOM     31  C   UNL     1      -2.449 -15.938 -15.891  0.00  0.00    +0.000 C 
BRANCH  31  32
ATOM     32  C   UNL     1      -1.862 -16.796 -14.765  0.00  0.00    +0.000 C 
BRANCH  32  33
ATOM     33  O   UNL     1      -2.459 -16.613 -13.476  0.00  0.00    +0.000 OA
ATOM     34  H   UNL     1      -3.023 -17.395 -13.326  0.00  0.00    +0.000 HD
ENDBRANCH  32  33
BRANCH  32  35
ATOM     35  C   UNL     1      -0.328 -16.565 -14.720  0.00  0.00    +0.000 C 
BRANCH  35  36
ATOM     36  C   UNL     1       0.415 -17.338 -15.804  0.00  0.00    +0.000 A 
ATOM     37  C   UNL     1       0.273 -18.733 -15.881  0.00  0.00    +0.000 A 
ATOM     38  C   UNL     1       1.215 -16.693 -16.762  0.00  0.00    +0.000 A 
ATOM     39  C   UNL     1       0.933 -19.465 -16.871  0.00  0.00    +0.000 A 
ATOM     40  C   UNL     1       1.874 -17.427 -17.750  0.00  0.00    +0.000 A 
ATOM     41  C   UNL     1       1.736 -18.812 -17.802  0.00  0.00    +0.000 A 
ENDBRANCH  35  36
BRANCH  35  43
ATOM     42  O   UNL     1       2.011 -15.495 -13.438  0.00  0.00    +0.000 OA
ATOM     43  N   UNL     1       0.228 -16.925 -13.423  0.00  0.00    +0.000 N 
ATOM     44  C   UNL     1       1.402 -16.433 -12.953  0.00  0.00    +0.000 C 
ATOM     45  H   UNL     1      -0.102 -17.780 -12.993  0.00  0.00    +0.000 HD
BRANCH  44  46
ATOM     46  O   UNL     1       1.756 -17.136 -11.855  0.00  0.00    +0.000 OA
BRANCH  46  47
ATOM     47  C   UNL     1       2.272 -18.486 -11.975  0.00  0.00    +0.000 C 
ATOM     48  C   UNL     1       3.016 -18.686 -13.300  0.00  0.00    +0.000 C 
ATOM     49  C   UNL     1       3.278 -18.622 -10.822  0.00  0.00    +0.000 C 
ATOM     50  C   UNL     1       1.161 -19.524 -11.781  0.00  0.00    +0.000 C 
ENDBRANCH  46  47
ENDBRANCH  44  46
ENDBRANCH  35  43
ENDBRANCH  32  35
ENDBRANCH  31  32
ENDBRANCH  29  31
ENDBRANCH  18  29
BRANCH   7  51
ATOM     51  O   UNL     1      -5.939 -17.623 -17.421  0.00  0.00    +0.000 OA
BRANCH  51  53
ATOM     52  O   UNL     1      -6.818 -17.906 -15.638  0.00  0.00    +0.000 OA
ATOM     53  C   UNL     1      -6.149 -17.041 -16.195  0.00  0.00    +0.000 C 
BRANCH  53  54
ATOM     54  C   UNL     1      -5.719 -15.221 -15.783  0.00  0.00    +0.000 A 
ATOM     55  C   UNL     1      -5.348 -14.716 -14.460  0.00  0.00    +0.000 A 
ATOM     56  C   UNL     1      -5.565 -14.135 -16.699  0.00  0.00    +0.000 A 
ATOM     57  C   UNL     1      -4.920 -13.406 -14.129  0.00  0.00    +0.000 A 
ATOM     58  C   UNL     1      -5.136 -12.812 -16.386  0.00  0.00    +0.000 A 
ATOM     59  C   UNL     1      -4.812 -12.445 -15.102  0.00  0.00    +0.000 A 
ENDBRANCH  53  54
ENDBRANCH  51  53
ENDBRANCH   7  51
BRANCH   4  60
ATOM     60  O   UNL     1      -8.532 -15.713 -17.423  0.00  0.00    +0.000 OA
BRANCH  60  62
ATOM     61  O   UNL     1      -9.811 -13.881 -17.325  0.00  0.00    +0.000 OA
ATOM     62  C   UNL     1      -9.196 -14.761 -16.727  0.00  0.00    +0.000 C 
ATOM     63  C   UNL     1      -9.072 -14.732 -15.237  0.00  0.00    +0.000 C 
ENDBRANCH  60  62
ENDBRANCH   4  60
TORSDOF 17
ENDMDL
MODEL 5
REMARK VINA RESULT:      -5.6      2.337      6.622
REMARK  Name = 
REMARK  25 active torsions:
REMARK  status: ('A' for Active; 'I' for Inactive)
REMARK    1  A    between atoms: O_2  and  C_17
REMARK    2  A    between atoms: O_2  and  C_36
REMARK    3  A    between atoms: O_3  and  C_20
REMARK    4  A    between atoms: O_3  and  C_37
REMARK    5  A    between atoms: O_4  and  C_21
REMARK    6  A    between atoms: O_5  and  C_22
REMARK    7  A    between atoms: O_7  and  C_30
REMARK    8  A    between atoms: O_8  and  C_31
REMARK    9  A    between atoms: O_8  and  C_39
REMARK   10  A    between atoms: O_12  and  C_41
REMARK   11  A    between atoms: O_13  and  C_51
REMARK   12  A    between atoms: O_13  and  C_55
REMARK   13  A    between atoms: N_15  and  C_44
REMARK   14  A    between atoms: C_18  and  C_29
REMARK   15  A    between atoms: C_24  and  C_33
REMARK   16  A    between atoms: C_24  and  C_34
REMARK   17  A    between atoms: C_32  and  C_35
REMARK   18  A    between atoms: C_36  and  C_38
REMARK   19  A    between atoms: C_37  and  C_40
REMARK   20  A    between atoms: C_39  and  C_41
REMARK   21  A    between atoms: C_41  and  C_44
REMARK   22  A    between atoms: C_44  and  C_48
REMARK   23  A    between atoms: C_55  and  C_56
REMARK   24  A    between atoms: C_55  and  C_57
REMARK   25  A    between atoms: C_55  and  C_58
REMARK                            x       y       z     vdW  Elec       q    Type
REMARK                         _______ _______ _______ _____ _____    ______ ____
ROOT
ATOM      1  O   UNL     1      -6.518 -40.763   4.228  0.00  0.00    +0.000 OA
ATOM      2  O   UNL     1      -5.128 -43.289  -1.842  0.00  0.00    +0.000 OA
ATOM      3  C   UNL     1      -4.437 -40.509   1.497  0.00  0.00    +0.000 C 
ATOM      4  C   UNL     1      -5.525 -40.002   2.489  0.00  0.00    +0.000 C 
ATOM      5  C   UNL     1      -5.337 -41.480   0.137  0.00  0.00    +0.000 C 
ATOM      6  C   UNL     1      -5.951 -41.416   3.060  0.00  0.00    +0.000 C 
ATOM      7  C   UNL     1      -3.174 -39.195   1.107  0.00  0.00    +0.000 C 
ATOM      8  C   UNL     1      -1.631 -38.889   0.052  0.00  0.00    +0.000 C 
ATOM      9  C   UNL     1      -6.033 -42.669   0.920  0.00  0.00    +0.000 C 
ATOM     10  C   UNL     1      -6.855 -42.251   2.178  0.00  0.00    +0.000 C 
ATOM     11  C   UNL     1      -0.990 -39.870  -1.281  0.00  0.00    +0.000 C 
ATOM     12  C   UNL     1      -5.453 -39.747   4.047  0.00  0.00    +0.000 C 
ATOM     13  C   UNL     1      -4.606 -42.231  -1.427  0.00  0.00    +0.000 C 
ATOM     14  C   UNL     1      -1.911 -37.517  -0.717  0.00  0.00    +0.000 C 
ATOM     15  C   UNL     1      -2.102 -40.147  -2.398  0.00  0.00    +0.000 C 
ATOM     16  C   UNL     1      -6.563 -40.676  -0.468  0.00  0.00    +0.000 C 
ATOM     17  C   UNL     1      -3.150 -41.589  -2.498  0.00  0.00    +0.000 C 
ATOM     18  C   UNL     1      -2.474 -37.598  -2.209  0.00  0.00    +0.000 C 
ATOM     19  C   UNL     1      -2.559 -38.976  -2.958  0.00  0.00    +0.000 C 
ATOM     20  C   UNL     1       0.173 -39.006  -1.985  0.00  0.00    +0.000 C 
ATOM     21  C   UNL     1      -0.072 -41.092  -0.959  0.00  0.00    +0.000 C 
ATOM     22  C   UNL     1      -3.417 -38.954  -4.198  0.00  0.00    +0.000 C 
ENDROOT
BRANCH  17  23
ATOM     23  O   UNL     1      -2.286 -42.637  -2.938  0.00  0.00    +0.000 OA
ATOM     24  H   UNL     1      -2.674 -43.454  -2.570  0.00  0.00    +0.000 HD
ENDBRANCH  17  23
BRANCH   9  25
ATOM     25  O   UNL     1      -5.023 -43.573   1.369  0.00  0.00    +0.000 OA
ATOM     26  H   UNL     1      -4.732 -43.263   2.246  0.00  0.00    +0.000 HD
ENDBRANCH   9  25
BRANCH   8  27
ATOM     27  O   UNL     1      -0.586 -38.622   1.008  0.00  0.00    +0.000 OA
ATOM     28  H   UNL     1       0.095 -39.314   0.938  0.00  0.00    +0.000 HD
ENDBRANCH   8  27
BRANCH  18  29
ATOM     29  O   UNL     1      -3.821 -37.042  -2.201  0.00  0.00    +0.000 OA
BRANCH  29  31
ATOM     30  O   UNL     1      -3.116 -35.042  -2.979  0.00  0.00    +0.000 OA
ATOM     31  C   UNL     1      -4.019 -35.859  -2.834  0.00  0.00    +0.000 C 
BRANCH  31  32
ATOM     32  C   UNL     1      -5.475 -35.552  -3.202  0.00  0.00    +0.000 C 
BRANCH  32  33
ATOM     33  O   UNL     1      -6.048 -36.398  -4.206  0.00  0.00    +0.000 OA
ATOM     34  H   UNL     1      -6.649 -37.006  -3.735  0.00  0.00    +0.000 HD
ENDBRANCH  32  33
BRANCH  32  35
ATOM     35  C   UNL     1      -5.578 -34.054  -3.594  0.00  0.00    +0.000 C 
BRANCH  35  36
ATOM     36  C   UNL     1      -6.794 -33.368  -2.982  0.00  0.00    +0.000 A 
ATOM     37  C   UNL     1      -8.071 -33.619  -3.511  0.00  0.00    +0.000 A 
ATOM     38  C   UNL     1      -6.686 -32.515  -1.871  0.00  0.00    +0.000 A 
ATOM     39  C   UNL     1      -9.203 -33.013  -2.963  0.00  0.00    +0.000 A 
ATOM     40  C   UNL     1      -7.819 -31.910  -1.325  0.00  0.00    +0.000 A 
ATOM     41  C   UNL     1      -9.077 -32.156  -1.873  0.00  0.00    +0.000 A 
ENDBRANCH  35  36
BRANCH  35  43
ATOM     42  O   UNL     1      -3.537 -32.984  -5.312  0.00  0.00    +0.000 OA
ATOM     43  N   UNL     1      -5.621 -33.883  -5.040  0.00  0.00    +0.000 N 
ATOM     44  C   UNL     1      -4.641 -33.267  -5.747  0.00  0.00    +0.000 C 
ATOM     45  H   UNL     1      -6.524 -33.949  -5.492  0.00  0.00    +0.000 HD
BRANCH  44  46
ATOM     46  O   UNL     1      -5.085 -33.053  -7.004  0.00  0.00    +0.000 OA
BRANCH  46  47
ATOM     47  C   UNL     1      -4.172 -33.102  -8.131  0.00  0.00    +0.000 C 
ATOM     48  C   UNL     1      -3.225 -34.302  -8.033  0.00  0.00    +0.000 C 
ATOM     49  C   UNL     1      -5.078 -33.290  -9.358  0.00  0.00    +0.000 C 
ATOM     50  C   UNL     1      -3.408 -31.781  -8.284  0.00  0.00    +0.000 C 
ENDBRANCH  46  47
ENDBRANCH  44  46
ENDBRANCH  35  43
ENDBRANCH  32  35
ENDBRANCH  31  32
ENDBRANCH  29  31
ENDBRANCH  18  29
BRANCH   7  51
ATOM     51  O   UNL     1      -3.920 -38.914   0.059  0.00  0.00    +0.000 OA
BRANCH  51  53
ATOM     52  O   UNL     1      -3.575 -37.667   1.595  0.00  0.00    +0.000 OA
ATOM     53  C   UNL     1      -4.352 -37.751   0.649  0.00  0.00    +0.000 C 
BRANCH  53  54
ATOM     54  C   UNL     1      -5.966 -36.838   0.168  0.00  0.00    +0.000 A 
ATOM     55  C   UNL     1      -6.975 -37.337  -0.767  0.00  0.00    +0.000 A 
ATOM     56  C   UNL     1      -6.484 -35.632   0.732  0.00  0.00    +0.000 A 
ATOM     57  C   UNL     1      -8.230 -36.750  -1.072  0.00  0.00    +0.000 A 
ATOM     58  C   UNL     1      -7.741 -35.026   0.439  0.00  0.00    +0.000 A 
ATOM     59  C   UNL     1      -8.615 -35.584  -0.462  0.00  0.00    +0.000 A 
ENDBRANCH  53  54
ENDBRANCH  51  53
ENDBRANCH   7  51
BRANCH   4  60
ATOM     60  O   UNL     1      -6.590 -39.285   1.821  0.00  0.00    +0.000 OA
BRANCH  60  62
ATOM     61  O   UNL     1      -8.787 -39.400   2.224  0.00  0.00    +0.000 OA
ATOM     62  C   UNL     1      -7.712 -38.844   2.436  0.00  0.00    +0.000 C 
ATOM     63  C   UNL     1      -7.642 -37.608   3.276  0.00  0.00    +0.000 C 
ENDBRANCH  60  62
ENDBRANCH   4  60
TORSDOF 17
ENDMDL
MODEL 6
REMARK VINA RESULT:      -5.6      2.222      3.958
REMARK  Name = 
REMARK  25 active torsions:
REMARK  status: ('A' for Active; 'I' for Inactive)
REMARK    1  A    between atoms: O_2  and  C_17
REMARK    2  A    between atoms: O_2  and  C_36
REMARK    3  A    between atoms: O_3  and  C_20
REMARK    4  A    between atoms: O_3  and  C_37
REMARK    5  A    between atoms: O_4  and  C_21
REMARK    6  A    between atoms: O_5  and  C_22
REMARK    7  A    between atoms: O_7  and  C_30
REMARK    8  A    between atoms: O_8  and  C_31
REMARK    9  A    between atoms: O_8  and  C_39
REMARK   10  A    between atoms: O_12  and  C_41
REMARK   11  A    between atoms: O_13  and  C_51
REMARK   12  A    between atoms: O_13  and  C_55
REMARK   13  A    between atoms: N_15  and  C_44
REMARK   14  A    between atoms: C_18  and  C_29
REMARK   15  A    between atoms: C_24  and  C_33
REMARK   16  A    between atoms: C_24  and  C_34
REMARK   17  A    between atoms: C_32  and  C_35
REMARK   18  A    between atoms: C_36  and  C_38
REMARK   19  A    between atoms: C_37  and  C_40
REMARK   20  A    between atoms: C_39  and  C_41
REMARK   21  A    between atoms: C_41  and  C_44
REMARK   22  A    between atoms: C_44  and  C_48
REMARK   23  A    between atoms: C_55  and  C_56
REMARK   24  A    between atoms: C_55  and  C_57
REMARK   25  A    between atoms: C_55  and  C_58
REMARK                            x       y       z     vdW  Elec       q    Type
REMARK                         _______ _______ _______ _____ _____    ______ ____
ROOT
ATOM      1  O   UNL     1      -2.156 -41.504   0.087  0.00  0.00    +0.000 OA
ATOM      2  O   UNL     1      -4.724 -36.266   3.423  0.00  0.00    +0.000 OA
ATOM      3  C   UNL     1      -4.826 -39.337   0.275  0.00  0.00    +0.000 C 
ATOM      4  C   UNL     1      -3.578 -39.977  -0.402  0.00  0.00    +0.000 C 
ATOM      5  C   UNL     1      -4.197 -37.920   1.370  0.00  0.00    +0.000 C 
ATOM      6  C   UNL     1      -2.929 -40.586   0.908  0.00  0.00    +0.000 C 
ATOM      7  C   UNL     1      -6.237 -39.114  -0.922  0.00  0.00    +0.000 C 
ATOM      8  C   UNL     1      -8.001 -38.431  -1.022  0.00  0.00    +0.000 C 
ATOM      9  C   UNL     1      -3.253 -38.644   2.418  0.00  0.00    +0.000 C 
ATOM     10  C   UNL     1      -2.195 -39.614   1.807  0.00  0.00    +0.000 C 
ATOM     11  C   UNL     1      -8.860 -37.408   0.148  0.00  0.00    +0.000 C 
ATOM     12  C   UNL     1      -3.306 -41.469  -0.849  0.00  0.00    +0.000 C 
ATOM     13  C   UNL     1      -5.212 -36.671   2.345  0.00  0.00    +0.000 C 
ATOM     14  C   UNL     1      -8.008 -37.466  -2.296  0.00  0.00    +0.000 C 
ATOM     15  C   UNL     1      -8.019 -36.097   0.514  0.00  0.00    +0.000 C 
ATOM     16  C   UNL     1      -3.206 -36.954   0.595  0.00  0.00    +0.000 C 
ATOM     17  C   UNL     1      -6.920 -35.913   1.909  0.00  0.00    +0.000 C 
ATOM     18  C   UNL     1      -7.800 -35.902  -2.052  0.00  0.00    +0.000 C 
ATOM     19  C   UNL     1      -7.791 -35.316  -0.595  0.00  0.00    +0.000 C 
ATOM     20  C   UNL     1     -10.214 -36.908  -0.568  0.00  0.00    +0.000 C 
ATOM     21  C   UNL     1      -9.586 -38.076   1.358  0.00  0.00    +0.000 C 
ATOM     22  C   UNL     1      -7.247 -33.912  -0.498  0.00  0.00    +0.000 C 
ENDROOT
BRANCH  17  23
ATOM     23  O   UNL     1      -7.783 -35.813   3.042  0.00  0.00    +0.000 OA
ATOM     24  H   UNL     1      -7.285 -36.222   3.775  0.00  0.00    +0.000 HD
ENDBRANCH  17  23
BRANCH   9  25
ATOM     25  O   UNL     1      -4.064 -39.421   3.301  0.00  0.00    +0.000 OA
ATOM     26  H   UNL     1      -4.666 -38.803   3.752  0.00  0.00    +0.000 HD
ENDBRANCH   9  25
BRANCH   8  27
ATOM     27  O   UNL     1      -8.814 -39.571  -1.362  0.00  0.00    +0.000 OA
ATOM     28  H   UNL     1      -8.377 -40.380  -1.043  0.00  0.00    +0.000 HD
ENDBRANCH   8  27
BRANCH  18  29
ATOM     29  O   UNL     1      -6.533 -35.526  -2.664  0.00  0.00    +0.000 OA
BRANCH  29  31
ATOM     30  O   UNL     1      -6.814 -35.943  -4.865  0.00  0.00    +0.000 OA
ATOM     31  C   UNL     1      -6.547 -35.152  -3.968  0.00  0.00    +0.000 C 
BRANCH  31  32
ATOM     32  C   UNL     1      -6.050 -33.728  -4.243  0.00  0.00    +0.000 C 
BRANCH  32  33
ATOM     33  O   UNL     1      -6.952 -32.891  -4.975  0.00  0.00    +0.000 OA
ATOM     34  H   UNL     1      -6.785 -31.980  -4.668  0.00  0.00    +0.000 HD
ENDBRANCH  32  33
BRANCH  32  35
ATOM     35  C   UNL     1      -4.665 -33.818  -4.939  0.00  0.00    +0.000 C 
BRANCH  35  36
ATOM     36  C   UNL     1      -4.725 -33.443  -6.415  0.00  0.00    +0.000 A 
ATOM     37  C   UNL     1      -4.040 -32.303  -6.869  0.00  0.00    +0.000 A 
ATOM     38  C   UNL     1      -5.417 -34.226  -7.354  0.00  0.00    +0.000 A 
ATOM     39  C   UNL     1      -4.069 -31.943  -8.218  0.00  0.00    +0.000 A 
ATOM     40  C   UNL     1      -5.444 -33.863  -8.702  0.00  0.00    +0.000 A 
ATOM     41  C   UNL     1      -4.773 -32.720  -9.133  0.00  0.00    +0.000 A 
ENDBRANCH  35  36
BRANCH  35  43
ATOM     42  O   UNL     1      -1.894 -34.540  -4.704  0.00  0.00    +0.000 OA
ATOM     43  N   UNL     1      -4.093 -35.152  -4.817  0.00  0.00    +0.000 N 
ATOM     44  C   UNL     1      -2.758 -35.393  -4.818  0.00  0.00    +0.000 C 
ATOM     45  H   UNL     1      -4.689 -35.939  -5.039  0.00  0.00    +0.000 HD
BRANCH  44  46
ATOM     46  O   UNL     1      -2.559 -36.723  -4.938  0.00  0.00    +0.000 OA
BRANCH  46  47
ATOM     47  C   UNL     1      -2.744 -37.388  -6.214  0.00  0.00    +0.000 C 
ATOM     48  C   UNL     1      -2.546 -36.418  -7.384  0.00  0.00    +0.000 C 
ATOM     49  C   UNL     1      -1.636 -38.450  -6.264  0.00  0.00    +0.000 C 
ATOM     50  C   UNL     1      -4.104 -38.094  -6.279  0.00  0.00    +0.000 C 
ENDBRANCH  46  47
ENDBRANCH  44  46
ENDBRANCH  35  43
ENDBRANCH  32  35
ENDBRANCH  31  32
ENDBRANCH  29  31
ENDBRANCH  18  29
BRANCH   7  51
ATOM     51  O   UNL     1      -5.777 -37.894  -1.100  0.00  0.00    +0.000 OA
BRANCH  51  53
ATOM     52  O   UNL     1      -4.473 -37.311  -2.511  0.00  0.00    +0.000 OA
ATOM     53  C   UNL     1      -5.236 -38.250  -2.312  0.00  0.00    +0.000 C 
BRANCH  53  54
ATOM     54  C   UNL     1      -5.884 -39.692  -3.394  0.00  0.00    +0.000 A 
ATOM     55  C   UNL     1      -6.920 -39.580  -4.422  0.00  0.00    +0.000 A 
ATOM     56  C   UNL     1      -5.378 -41.026  -3.459  0.00  0.00    +0.000 A 
ATOM     57  C   UNL     1      -7.354 -40.590  -5.318  0.00  0.00    +0.000 A 
ATOM     58  C   UNL     1      -5.801 -42.055  -4.351  0.00  0.00    +0.000 A 
ATOM     59  C   UNL     1      -6.788 -41.839  -5.281  0.00  0.00    +0.000 A 
ENDBRANCH  53  54
ENDBRANCH  51  53
ENDBRANCH   7  51
BRANCH   4  60
ATOM     60  O   UNL     1      -2.752 -38.998  -1.075  0.00  0.00    +0.000 OA
BRANCH  60  62
ATOM     61  O   UNL     1      -2.134 -39.764  -3.084  0.00  0.00    +0.000 OA
ATOM     62  C   UNL     1      -1.806 -39.304  -1.993  0.00  0.00    +0.000 C 
ATOM     63  C   UNL     1      -0.363 -39.184  -1.615  0.00  0.00    +0.000 C 
ENDBRANCH  60  62
ENDBRANCH   4  60
TORSDOF 17
ENDMDL
MODEL 7
REMARK VINA RESULT:      -5.4      2.693      8.425
REMARK  Name = 
REMARK  25 active torsions:
REMARK  status: ('A' for Active; 'I' for Inactive)
REMARK    1  A    between atoms: O_2  and  C_17
REMARK    2  A    between atoms: O_2  and  C_36
REMARK    3  A    between atoms: O_3  and  C_20
REMARK    4  A    between atoms: O_3  and  C_37
REMARK    5  A    between atoms: O_4  and  C_21
REMARK    6  A    between atoms: O_5  and  C_22
REMARK    7  A    between atoms: O_7  and  C_30
REMARK    8  A    between atoms: O_8  and  C_31
REMARK    9  A    between atoms: O_8  and  C_39
REMARK   10  A    between atoms: O_12  and  C_41
REMARK   11  A    between atoms: O_13  and  C_51
REMARK   12  A    between atoms: O_13  and  C_55
REMARK   13  A    between atoms: N_15  and  C_44
REMARK   14  A    between atoms: C_18  and  C_29
REMARK   15  A    between atoms: C_24  and  C_33
REMARK   16  A    between atoms: C_24  and  C_34
REMARK   17  A    between atoms: C_32  and  C_35
REMARK   18  A    between atoms: C_36  and  C_38
REMARK   19  A    between atoms: C_37  and  C_40
REMARK   20  A    between atoms: C_39  and  C_41
REMARK   21  A    between atoms: C_41  and  C_44
REMARK   22  A    between atoms: C_44  and  C_48
REMARK   23  A    between atoms: C_55  and  C_56
REMARK   24  A    between atoms: C_55  and  C_57
REMARK   25  A    between atoms: C_55  and  C_58
REMARK                            x       y       z     vdW  Elec       q    Type
REMARK                         _______ _______ _______ _____ _____    ______ ____
ROOT
ATOM      1  O   UNL     1      -2.927 -39.989  -7.209  0.00  0.00    +0.000 OA
ATOM      2  O   UNL     1       0.614 -38.829  -1.617  0.00  0.00    +0.000 OA
ATOM      3  C   UNL     1      -3.061 -39.929  -3.769  0.00  0.00    +0.000 C 
ATOM      4  C   UNL     1      -3.446 -39.452  -5.201  0.00  0.00    +0.000 C 
ATOM      5  C   UNL     1      -1.509 -38.962  -3.261  0.00  0.00    +0.000 C 
ATOM      6  C   UNL     1      -2.192 -40.055  -5.957  0.00  0.00    +0.000 C 
ATOM      7  C   UNL     1      -4.549 -40.074  -2.655  0.00  0.00    +0.000 C 
ATOM      8  C   UNL     1      -5.028 -40.500  -0.872  0.00  0.00    +0.000 C 
ATOM      9  C   UNL     1      -0.431 -39.386  -4.343  0.00  0.00    +0.000 C 
ATOM     10  C   UNL     1      -0.896 -39.283  -5.828  0.00  0.00    +0.000 C 
ATOM     11  C   UNL     1      -3.975 -40.672   0.546  0.00  0.00    +0.000 C 
ATOM     12  C   UNL     1      -4.139 -40.231  -6.390  0.00  0.00    +0.000 C 
ATOM     13  C   UNL     1      -0.627 -38.977  -1.599  0.00  0.00    +0.000 C 
ATOM     14  C   UNL     1      -5.958 -39.295  -0.386  0.00  0.00    +0.000 C 
ATOM     15  C   UNL     1      -3.049 -39.383   0.753  0.00  0.00    +0.000 C 
ATOM     16  C   UNL     1      -1.667 -37.401  -3.498  0.00  0.00    +0.000 C 
ATOM     17  C   UNL     1      -1.378 -39.186   0.155  0.00  0.00    +0.000 C 
ATOM     18  C   UNL     1      -5.282 -38.120   0.457  0.00  0.00    +0.000 C 
ATOM     19  C   UNL     1      -3.799 -38.249   0.959  0.00  0.00    +0.000 C 
ATOM     20  C   UNL     1      -4.934 -40.769   1.837  0.00  0.00    +0.000 C 
ATOM     21  C   UNL     1      -3.261 -42.036   0.807  0.00  0.00    +0.000 C 
ATOM     22  C   UNL     1      -3.191 -36.950   1.427  0.00  0.00    +0.000 C 
ENDROOT
BRANCH  17  23
ATOM     23  O   UNL     1      -0.588 -40.028   0.995  0.00  0.00    +0.000 OA
ATOM     24  H   UNL     1      -1.227 -40.634   1.415  0.00  0.00    +0.000 HD
ENDBRANCH  17  23
BRANCH   9  25
ATOM     25  O   UNL     1      -0.070 -40.750  -4.117  0.00  0.00    +0.000 OA
ATOM     26  H   UNL     1       0.882 -40.762  -3.912  0.00  0.00    +0.000 HD
ENDBRANCH   9  25
BRANCH   8  27
ATOM     27  O   UNL     1      -5.878 -41.657  -0.991  0.00  0.00    +0.000 OA
ATOM     28  H   UNL     1      -5.363 -42.455  -0.777  0.00  0.00    +0.000 HD
ENDBRANCH   8  27
BRANCH  18  29
ATOM     29  O   UNL     1      -5.349 -36.907  -0.347  0.00  0.00    +0.000 OA
BRANCH  29  31
ATOM     30  O   UNL     1      -6.379 -35.725   1.279  0.00  0.00    +0.000 OA
ATOM     31  C   UNL     1      -6.155 -35.906   0.087  0.00  0.00    +0.000 C 
BRANCH  31  32
ATOM     32  C   UNL     1      -6.887 -35.134  -1.017  0.00  0.00    +0.000 C 
BRANCH  32  33
ATOM     33  O   UNL     1      -6.577 -33.738  -1.101  0.00  0.00    +0.000 OA
ATOM     34  H   UNL     1      -5.612 -33.684  -1.238  0.00  0.00    +0.000 HD
ENDBRANCH  32  33
BRANCH  32  35
ATOM     35  C   UNL     1      -8.412 -35.370  -0.853  0.00  0.00    +0.000 C 
BRANCH  35  36
ATOM     36  C   UNL     1      -9.053 -35.959  -2.104  0.00  0.00    +0.000 A 
ATOM     37  C   UNL     1      -9.679 -35.108  -3.029  0.00  0.00    +0.000 A 
ATOM     38  C   UNL     1      -9.006 -37.335  -2.386  0.00  0.00    +0.000 A 
ATOM     39  C   UNL     1     -10.265 -35.620  -4.189  0.00  0.00    +0.000 A 
ATOM     40  C   UNL     1      -9.593 -37.845  -3.546  0.00  0.00    +0.000 A 
ATOM     41  C   UNL     1     -10.225 -36.988  -4.445  0.00  0.00    +0.000 A 
ENDBRANCH  35  36
BRANCH  35  43
ATOM     42  O   UNL     1      -9.357 -34.540   1.731  0.00  0.00    +0.000 OA
ATOM     43  N   UNL     1      -9.107 -34.138  -0.505  0.00  0.00    +0.000 N 
ATOM     44  C   UNL     1      -9.607 -33.889   0.731  0.00  0.00    +0.000 C 
ATOM     45  H   UNL     1      -9.493 -33.589  -1.262  0.00  0.00    +0.000 HD
BRANCH  44  46
ATOM     46  O   UNL     1     -10.394 -32.794   0.666  0.00  0.00    +0.000 OA
BRANCH  46  47
ATOM     47  C   UNL     1      -9.891 -31.493   1.066  0.00  0.00    +0.000 C 
ATOM     48  C   UNL     1      -8.593 -31.145   0.329  0.00  0.00    +0.000 C 
ATOM     49  C   UNL     1     -10.982 -30.503   0.634  0.00  0.00    +0.000 C 
ATOM     50  C   UNL     1      -9.725 -31.407   2.587  0.00  0.00    +0.000 C 
ENDBRANCH  46  47
ENDBRANCH  44  46
ENDBRANCH  35  43
ENDBRANCH  32  35
ENDBRANCH  31  32
ENDBRANCH  29  31
ENDBRANCH  18  29
BRANCH   7  51
ATOM     51  O   UNL     1      -4.264 -38.850  -2.263  0.00  0.00    +0.000 OA
BRANCH  51  53
ATOM     52  O   UNL     1      -5.933 -39.380  -3.246  0.00  0.00    +0.000 OA
ATOM     53  C   UNL     1      -5.321 -38.350  -2.984  0.00  0.00    +0.000 C 
BRANCH  53  54
ATOM     54  C   UNL     1      -5.441 -36.538  -3.596  0.00  0.00    +0.000 A 
ATOM     55  C   UNL     1      -4.450 -35.492  -3.345  0.00  0.00    +0.000 A 
ATOM     56  C   UNL     1      -6.417 -35.982  -4.479  0.00  0.00    +0.000 A 
ATOM     57  C   UNL     1      -4.443 -34.172  -3.865  0.00  0.00    +0.000 A 
ATOM     58  C   UNL     1      -6.427 -34.659  -5.012  0.00  0.00    +0.000 A 
ATOM     59  C   UNL     1      -5.441 -33.753  -4.706  0.00  0.00    +0.000 A 
ENDBRANCH  53  54
ENDBRANCH  51  53
ENDBRANCH   7  51
BRANCH   4  60
ATOM     60  O   UNL     1      -3.559 -38.013  -5.291  0.00  0.00    +0.000 OA
BRANCH  60  62
ATOM     61  O   UNL     1      -4.933 -37.552  -6.996  0.00  0.00    +0.000 OA
ATOM     62  C   UNL     1      -3.863 -37.344  -6.428  0.00  0.00    +0.000 C 
ATOM     63  C   UNL     1      -2.835 -36.445  -7.038  0.00  0.00    +0.000 C 
ENDBRANCH  60  62
ENDBRANCH   4  60
TORSDOF 17
ENDMDL
MODEL 8
REMARK VINA RESULT:      -5.4      1.684      2.507
REMARK  Name = 
REMARK  25 active torsions:
REMARK  status: ('A' for Active; 'I' for Inactive)
REMARK    1  A    between atoms: O_2  and  C_17
REMARK    2  A    between atoms: O_2  and  C_36
REMARK    3  A    between atoms: O_3  and  C_20
REMARK    4  A    between atoms: O_3  and  C_37
REMARK    5  A    between atoms: O_4  and  C_21
REMARK    6  A    between atoms: O_5  and  C_22
REMARK    7  A    between atoms: O_7  and  C_30
REMARK    8  A    between atoms: O_8  and  C_31
REMARK    9  A    between atoms: O_8  and  C_39
REMARK   10  A    between atoms: O_12  and  C_41
REMARK   11  A    between atoms: O_13  and  C_51
REMARK   12  A    between atoms: O_13  and  C_55
REMARK   13  A    between atoms: N_15  and  C_44
REMARK   14  A    between atoms: C_18  and  C_29
REMARK   15  A    between atoms: C_24  and  C_33
REMARK   16  A    between atoms: C_24  and  C_34
REMARK   17  A    between atoms: C_32  and  C_35
REMARK   18  A    between atoms: C_36  and  C_38
REMARK   19  A    between atoms: C_37  and  C_40
REMARK   20  A    between atoms: C_39  and  C_41
REMARK   21  A    between atoms: C_41  and  C_44
REMARK   22  A    between atoms: C_44  and  C_48
REMARK   23  A    between atoms: C_55  and  C_56
REMARK   24  A    between atoms: C_55  and  C_57
REMARK   25  A    between atoms: C_55  and  C_58
REMARK                            x       y       z     vdW  Elec       q    Type
REMARK                         _______ _______ _______ _____ _____    ______ ____
ROOT
ATOM      1  O   UNL     1      -3.239 -42.245   1.018  0.00  0.00    +0.000 OA
ATOM      2  O   UNL     1      -7.309 -37.576   3.625  0.00  0.00    +0.000 OA
ATOM      3  C   UNL     1      -5.698 -39.948   0.288  0.00  0.00    +0.000 C 
ATOM      4  C   UNL     1      -4.260 -40.541   0.214  0.00  0.00    +0.000 C 
ATOM      5  C   UNL     1      -5.758 -38.830   1.821  0.00  0.00    +0.000 C 
ATOM      6  C   UNL     1      -4.350 -41.447   1.510  0.00  0.00    +0.000 C 
ATOM      7  C   UNL     1      -6.310 -39.379  -1.378  0.00  0.00    +0.000 C 
ATOM      8  C   UNL     1      -7.798 -38.548  -2.206  0.00  0.00    +0.000 C 
ATOM      9  C   UNL     1      -5.457 -39.821   3.021  0.00  0.00    +0.000 C 
ATOM     10  C   UNL     1      -4.206 -40.734   2.838  0.00  0.00    +0.000 C 
ATOM     11  C   UNL     1      -9.164 -37.710  -1.443  0.00  0.00    +0.000 C 
ATOM     12  C   UNL     1      -3.752 -41.933  -0.338  0.00  0.00    +0.000 C 
ATOM     13  C   UNL     1      -7.167 -37.720   2.391  0.00  0.00    +0.000 C 
ATOM     14  C   UNL     1      -7.185 -37.355  -3.074  0.00  0.00    +0.000 C 
ATOM     15  C   UNL     1      -8.667 -36.569  -0.435  0.00  0.00    +0.000 C 
ATOM     16  C   UNL     1      -4.542 -37.814   1.875  0.00  0.00    +0.000 C 
ATOM     17  C   UNL     1      -8.438 -36.754   1.326  0.00  0.00    +0.000 C 
ATOM     18  C   UNL     1      -7.179 -35.891  -2.434  0.00  0.00    +0.000 C 
ATOM     19  C   UNL     1      -7.931 -35.606  -1.085  0.00  0.00    +0.000 C 
ATOM     20  C   UNL     1      -9.980 -36.971  -2.618  0.00  0.00    +0.000 C 
ATOM     21  C   UNL     1     -10.384 -38.542  -0.935  0.00  0.00    +0.000 C 
ATOM     22  C   UNL     1      -7.556 -34.298  -0.434  0.00  0.00    +0.000 C 
ENDROOT
BRANCH  17  23
ATOM     23  O   UNL     1      -9.760 -36.810   1.861  0.00  0.00    +0.000 OA
ATOM     24  H   UNL     1      -9.638 -36.876   2.827  0.00  0.00    +0.000 HD
ENDBRANCH  17  23
BRANCH   9  25
ATOM     25  O   UNL     1      -6.580 -40.688   3.190  0.00  0.00    +0.000 OA
ATOM     26  H   UNL     1      -7.246 -40.424   2.529  0.00  0.00    +0.000 HD
ENDBRANCH   9  25
BRANCH   8  27
ATOM     27  O   UNL     1      -8.288 -39.529  -3.140  0.00  0.00    +0.000 OA
ATOM     28  H   UNL     1      -8.197 -39.182  -4.045  0.00  0.00    +0.000 HD
ENDBRANCH   8  27
BRANCH  18  29
ATOM     29  O   UNL     1      -5.789 -35.506  -2.230  0.00  0.00    +0.000 OA
BRANCH  29  31
ATOM     30  O   UNL     1      -5.848 -33.904  -3.821  0.00  0.00    +0.000 OA
ATOM     31  C   UNL     1      -5.206 -34.722  -3.171  0.00  0.00    +0.000 C 
BRANCH  31  32
ATOM     32  C   UNL     1      -3.739 -35.048  -3.473  0.00  0.00    +0.000 C 
BRANCH  32  33
ATOM     33  O   UNL     1      -2.800 -34.016  -3.149  0.00  0.00    +0.000 OA
ATOM     34  H   UNL     1      -2.573 -33.584  -3.994  0.00  0.00    +0.000 HD
ENDBRANCH  32  33
BRANCH  32  35
ATOM     35  C   UNL     1      -3.627 -35.473  -4.961  0.00  0.00    +0.000 C 
BRANCH  35  36
ATOM     36  C   UNL     1      -2.730 -36.691  -5.158  0.00  0.00    +0.000 A 
ATOM     37  C   UNL     1      -2.653 -37.297  -6.423  0.00  0.00    +0.000 A 
ATOM     38  C   UNL     1      -1.942 -37.209  -4.117  0.00  0.00    +0.000 A 
ATOM     39  C   UNL     1      -1.831 -38.407  -6.634  0.00  0.00    +0.000 A 
ATOM     40  C   UNL     1      -1.122 -38.319  -4.331  0.00  0.00    +0.000 A 
ATOM     41  C   UNL     1      -1.069 -38.919  -5.587  0.00  0.00    +0.000 A 
ENDBRANCH  35  36
BRANCH  35  43
ATOM     42  O   UNL     1      -5.062 -33.951  -6.931  0.00  0.00    +0.000 OA
ATOM     43  N   UNL     1      -3.129 -34.385  -5.791  0.00  0.00    +0.000 N 
ATOM     44  C   UNL     1      -3.863 -33.799  -6.770  0.00  0.00    +0.000 C 
ATOM     45  H   UNL     1      -2.127 -34.263  -5.849  0.00  0.00    +0.000 HD
BRANCH  44  46
ATOM     46  O   UNL     1      -3.050 -33.010  -7.505  0.00  0.00    +0.000 OA
BRANCH  46  47
ATOM     47  C   UNL     1      -2.793 -33.307  -8.902  0.00  0.00    +0.000 C 
ATOM     48  C   UNL     1      -2.333 -34.756  -9.090  0.00  0.00    +0.000 C 
ATOM     49  C   UNL     1      -4.154 -33.130  -9.593  0.00  0.00    +0.000 C 
ATOM     50  C   UNL     1      -1.801 -32.308  -9.508  0.00  0.00    +0.000 C 
ENDBRANCH  46  47
ENDBRANCH  44  46
ENDBRANCH  35  43
ENDBRANCH  32  35
ENDBRANCH  31  32
ENDBRANCH  29  31
ENDBRANCH  18  29
BRANCH   7  51
ATOM     51  O   UNL     1      -5.861 -38.189  -1.039  0.00  0.00    +0.000 OA
BRANCH  51  53
ATOM     52  O   UNL     1      -4.012 -37.484  -1.374  0.00  0.00    +0.000 OA
ATOM     53  C   UNL     1      -4.743 -38.364  -1.817  0.00  0.00    +0.000 C 
BRANCH  53  54
ATOM     54  C   UNL     1      -4.672 -39.505  -3.354  0.00  0.00    +0.000 A 
ATOM     55  C   UNL     1      -5.262 -39.206  -4.659  0.00  0.00    +0.000 A 
ATOM     56  C   UNL     1      -3.938 -40.722  -3.500  0.00  0.00    +0.000 A 
ATOM     57  C   UNL     1      -5.144 -39.967  -5.850  0.00  0.00    +0.000 A 
ATOM     58  C   UNL     1      -3.807 -41.500  -4.687  0.00  0.00    +0.000 A 
ATOM     59  C   UNL     1      -4.409 -41.124  -5.863  0.00  0.00    +0.000 A 
ENDBRANCH  53  54
ENDBRANCH  51  53
ENDBRANCH   7  51
BRANCH   4  60
ATOM     60  O   UNL     1      -3.238 -39.519   0.272  0.00  0.00    +0.000 OA
BRANCH  60  62
ATOM     61  O   UNL     1      -1.547 -39.880  -1.148  0.00  0.00    +0.000 OA
ATOM     62  C   UNL     1      -1.928 -39.738   0.012  0.00  0.00    +0.000 C 
ATOM     63  C   UNL     1      -0.982 -39.922   1.157  0.00  0.00    +0.000 C 
ENDBRANCH  60  62
ENDBRANCH   4  60
TORSDOF 17
ENDMDL
MODEL 9
REMARK VINA RESULT:      -5.4      9.996     14.410
REMARK  Name = 
REMARK  25 active torsions:
REMARK  status: ('A' for Active; 'I' for Inactive)
REMARK    1  A    between atoms: O_2  and  C_17
REMARK    2  A    between atoms: O_2  and  C_36
REMARK    3  A    between atoms: O_3  and  C_20
REMARK    4  A    between atoms: O_3  and  C_37
REMARK    5  A    between atoms: O_4  and  C_21
REMARK    6  A    between atoms: O_5  and  C_22
REMARK    7  A    between atoms: O_7  and  C_30
REMARK    8  A    between atoms: O_8  and  C_31
REMARK    9  A    between atoms: O_8  and  C_39
REMARK   10  A    between atoms: O_12  and  C_41
REMARK   11  A    between atoms: O_13  and  C_51
REMARK   12  A    between atoms: O_13  and  C_55
REMARK   13  A    between atoms: N_15  and  C_44
REMARK   14  A    between atoms: C_18  and  C_29
REMARK   15  A    between atoms: C_24  and  C_33
REMARK   16  A    between atoms: C_24  and  C_34
REMARK   17  A    between atoms: C_32  and  C_35
REMARK   18  A    between atoms: C_36  and  C_38
REMARK   19  A    between atoms: C_37  and  C_40
REMARK   20  A    between atoms: C_39  and  C_41
REMARK   21  A    between atoms: C_41  and  C_44
REMARK   22  A    between atoms: C_44  and  C_48
REMARK   23  A    between atoms: C_55  and  C_56
REMARK   24  A    between atoms: C_55  and  C_57
REMARK   25  A    between atoms: C_55  and  C_58
REMARK                            x       y       z     vdW  Elec       q    Type
REMARK                         _______ _______ _______ _____ _____    ______ ____
ROOT
ATOM      1  O   UNL     1      -2.634 -34.118  13.550  0.00  0.00    +0.000 OA
ATOM      2  O   UNL     1      -7.972 -37.290  10.983  0.00  0.00    +0.000 OA
ATOM      3  C   UNL     1      -4.621 -34.450  10.758  0.00  0.00    +0.000 C 
ATOM      4  C   UNL     1      -4.008 -33.680  11.965  0.00  0.00    +0.000 C 
ATOM      5  C   UNL     1      -6.174 -35.335  11.396  0.00  0.00    +0.000 C 
ATOM      6  C   UNL     1      -3.569 -34.947  12.808  0.00  0.00    +0.000 C 
ATOM      7  C   UNL     1      -4.634 -33.421   9.203  0.00  0.00    +0.000 C 
ATOM      8  C   UNL     1      -5.183 -33.482   7.392  0.00  0.00    +0.000 C 
ATOM      9  C   UNL     1      -5.617 -36.316  12.510  0.00  0.00    +0.000 C 
ATOM     10  C   UNL     1      -4.669 -35.663  13.563  0.00  0.00    +0.000 C 
ATOM     11  C   UNL     1      -6.249 -34.657   6.597  0.00  0.00    +0.000 C 
ATOM     12  C   UNL     1      -2.503 -33.331  12.301  0.00  0.00    +0.000 C 
ATOM     13  C   UNL     1      -7.436 -36.319  10.406  0.00  0.00    +0.000 C 
ATOM     14  C   UNL     1      -6.021 -32.141   7.160  0.00  0.00    +0.000 C 
ATOM     15  C   UNL     1      -7.644 -34.805   7.368  0.00  0.00    +0.000 C 
ATOM     16  C   UNL     1      -7.129 -34.365  12.211  0.00  0.00    +0.000 C 
ATOM     17  C   UNL     1      -8.032 -36.034   8.605  0.00  0.00    +0.000 C 
ATOM     18  C   UNL     1      -7.612 -32.225   7.270  0.00  0.00    +0.000 C 
ATOM     19  C   UNL     1      -8.332 -33.615   7.403  0.00  0.00    +0.000 C 
ATOM     20  C   UNL     1      -6.586 -34.074   5.133  0.00  0.00    +0.000 C 
ATOM     21  C   UNL     1      -5.649 -36.000   6.072  0.00  0.00    +0.000 C 
ATOM     22  C   UNL     1      -9.772 -33.525   7.842  0.00  0.00    +0.000 C 
ENDROOT
BRANCH  17  23
ATOM     23  O   UNL     1      -8.178 -37.252   7.874  0.00  0.00    +0.000 OA
ATOM     24  H   UNL     1      -9.119 -37.491   7.969  0.00  0.00    +0.000 HD
ENDBRANCH  17  23
BRANCH   9  25
ATOM     25  O   UNL     1      -4.873 -37.354  11.872  0.00  0.00    +0.000 OA
ATOM     26  H   UNL     1      -4.527 -36.987  11.039  0.00  0.00    +0.000 HD
ENDBRANCH   9  25
BRANCH   8  27
ATOM     27  O   UNL     1      -3.963 -33.342   6.638  0.00  0.00    +0.000 OA
ATOM     28  H   UNL     1      -4.182 -33.227   5.696  0.00  0.00    +0.000 HD
ENDBRANCH   8  27
BRANCH  18  29
ATOM     29  O   UNL     1      -8.016 -31.432   8.424  0.00  0.00    +0.000 OA
BRANCH  29  31
ATOM     30  O   UNL     1      -9.790 -30.141   8.961  0.00  0.00    +0.000 OA
ATOM     31  C   UNL     1      -8.851 -30.385   8.210  0.00  0.00    +0.000 C 
BRANCH  31  32
ATOM     32  C   UNL     1      -8.637 -29.640   6.887  0.00  0.00    +0.000 C 
BRANCH  32  33
ATOM     33  O   UNL     1      -8.081 -28.325   7.004  0.00  0.00    +0.000 OA
ATOM     34  H   UNL     1      -8.840 -27.715   7.053  0.00  0.00    +0.000 HD
ENDBRANCH  32  33
BRANCH  32  35
ATOM     35  C   UNL     1      -9.981 -29.622   6.111  0.00  0.00    +0.000 C 
BRANCH  35  36
ATOM     36  C   UNL     1      -9.984 -30.575   4.920  0.00  0.00    +0.000 A 
ATOM     37  C   UNL     1     -11.207 -30.987   4.365  0.00  0.00    +0.000 A 
ATOM     38  C   UNL     1      -8.793 -31.030   4.330  0.00  0.00    +0.000 A 
ATOM     39  C   UNL     1     -11.238 -31.850   3.267  0.00  0.00    +0.000 A 
ATOM     40  C   UNL     1      -8.828 -31.893   3.233  0.00  0.00    +0.000 A 
ATOM     41  C   UNL     1     -10.049 -32.305   2.704  0.00  0.00    +0.000 A 
ENDBRANCH  35  36
BRANCH  35  43
ATOM     42  O   UNL     1     -12.146 -27.931   6.953  0.00  0.00    +0.000 OA
ATOM     43  N   UNL     1     -10.308 -28.283   5.641  0.00  0.00    +0.000 N 
ATOM     44  C   UNL     1     -11.419 -27.608   6.029  0.00  0.00    +0.000 C 
ATOM     45  H   UNL     1      -9.869 -27.968   4.786  0.00  0.00    +0.000 HD
BRANCH  44  46
ATOM     46  O   UNL     1     -11.560 -26.520   5.242  0.00  0.00    +0.000 OA
BRANCH  46  47
ATOM     47  C   UNL     1     -12.674 -26.411   4.319  0.00  0.00    +0.000 C 
ATOM     48  C   UNL     1     -13.920 -25.847   5.010  0.00  0.00    +0.000 C 
ATOM     49  C   UNL     1     -12.203 -25.404   3.258  0.00  0.00    +0.000 C 
ATOM     50  C   UNL     1     -12.957 -27.751   3.632  0.00  0.00    +0.000 C 
ENDBRANCH  46  47
ENDBRANCH  44  46
ENDBRANCH  35  43
ENDBRANCH  32  35
ENDBRANCH  31  32
ENDBRANCH  29  31
ENDBRANCH  18  29
BRANCH   7  51
ATOM     51  O   UNL     1      -5.861 -33.084   9.542  0.00  0.00    +0.000 OA
BRANCH  51  53
ATOM     52  O   UNL     1      -4.279 -31.849   9.489  0.00  0.00    +0.000 OA
ATOM     53  C   UNL     1      -5.453 -31.809   9.845  0.00  0.00    +0.000 C 
BRANCH  53  54
ATOM     54  C   UNL     1      -6.494 -30.560  10.858  0.00  0.00    +0.000 A 
ATOM     55  C   UNL     1      -7.651 -30.898  11.688  0.00  0.00    +0.000 A 
ATOM     56  C   UNL     1      -6.228 -29.171  11.063  0.00  0.00    +0.000 A 
ATOM     57  C   UNL     1      -8.384 -30.029  12.536  0.00  0.00    +0.000 A 
ATOM     58  C   UNL     1      -6.952 -28.282  11.911  0.00  0.00    +0.000 A 
ATOM     59  C   UNL     1      -8.030 -28.709  12.648  0.00  0.00    +0.000 A 
ENDBRANCH  53  54
ENDBRANCH  51  53
ENDBRANCH   7  51
BRANCH   4  60
ATOM     60  O   UNL     1      -4.973 -32.830  12.627  0.00  0.00    +0.000 OA
BRANCH  60  62
ATOM     61  O   UNL     1      -3.984 -30.893  13.151  0.00  0.00    +0.000 OA
ATOM     62  C   UNL     1      -4.651 -31.860  13.513  0.00  0.00    +0.000 C 
ATOM     63  C   UNL     1      -5.016 -32.042  14.953  0.00  0.00    +0.000 C 
ENDBRANCH  60  62
ENDBRANCH   4  60
TORSDOF 17
ENDMDL
