MODEL 1
REMARK VINA RESULT:      -6.6      0.000      0.000
REMARK  Name = 
REMARK  13 active torsions:
REMARK  status: ('A' for Active; 'I' for Inactive)
REMARK    1  A    between atoms: O_1  and  C_13
REMARK    2  A    between atoms: O_1  and  C_19
REMARK    3  A    between atoms: O_3  and  C_14
REMARK    4  A    between atoms: O_4  and  C_22
REMARK    5  A    between atoms: O_5  and  C_24
REMARK    6  A    between atoms: O_6  and  C_26
REMARK    7  A    between atoms: O_8  and  C_30
REMARK    8  A    between atoms: O_11  and  C_35
REMARK    9  A    between atoms: O_11  and  C_39
REMARK   10  A    between atoms: N_12  and  C_21
REMARK   11  A    between atoms: C_14  and  C_25
REMARK   12  A    between atoms: C_23  and  C_29
REMARK   13  A    between atoms: C_25  and  C_30
REMARK                            x       y       z     vdW  Elec       q    Type
REMARK                         _______ _______ _______ _____ _____    ______ ____
ROOT
ATOM      1  O   UNL     1      -1.305 -36.619  -9.076  0.00  0.00    +0.000 OA
ATOM      2  O   UNL     1      -2.568 -31.460  -8.826  0.00  0.00    +0.000 OA
ATOM      3  C   UNL     1      -4.553 -36.423  -5.110  0.00  0.00    +0.000 C 
ATOM      4  C   UNL     1      -5.667 -34.513  -3.873  0.00  0.00    +0.000 C 
ATOM      5  C   UNL     1      -5.841 -35.921  -4.457  0.00  0.00    +0.000 C 
ATOM      6  C   UNL     1      -5.264 -33.516  -4.970  0.00  0.00    +0.000 C 
ATOM      7  C   UNL     1      -4.003 -35.428  -6.114  0.00  0.00    +0.000 A 
ATOM      8  C   UNL     1      -4.311 -34.057  -6.021  0.00  0.00    +0.000 A 
ATOM      9  C   UNL     1      -3.126 -35.861  -7.125  0.00  0.00    +0.000 A 
ATOM     10  C   UNL     1      -3.757 -33.165  -6.957  0.00  0.00    +0.000 A 
ATOM     11  C   UNL     1      -2.565 -34.960  -8.052  0.00  0.00    +0.000 A 
ATOM     12  C   UNL     1      -2.885 -33.610  -7.965  0.00  0.00    +0.000 A 
ATOM     13  C   UNL     1      -1.634 -35.437  -9.099  0.00  0.00    +0.000 C 
ATOM     14  C   UNL     1      -2.308 -32.655  -8.930  0.00  0.00    +0.000 C 
ATOM     15  C   UNL     1      -1.109 -34.493 -10.114  0.00  0.00    +0.000 A 
ATOM     16  C   UNL     1      -1.434 -33.139 -10.014  0.00  0.00    +0.000 A 
ATOM     17  C   UNL     1      -0.285 -34.909 -11.171  0.00  0.00    +0.000 A 
ATOM     18  C   UNL     1      -0.945 -32.213 -10.949  0.00  0.00    +0.000 A 
ATOM     19  C   UNL     1       0.182 -33.989 -12.118  0.00  0.00    +0.000 A 
ATOM     20  C   UNL     1      -0.139 -32.640 -12.001  0.00  0.00    +0.000 A 
ENDROOT
BRANCH   4  21
ATOM     21  O   UNL     1      -4.684 -34.518  -2.830  0.00  0.00    +0.000 OA
ATOM     22  H   UNL     1      -5.166 -34.430  -1.980  0.00  0.00    +0.000 HD
ENDBRANCH   4  21
BRANCH   9  23
ATOM     23  O   UNL     1      -2.842 -37.205  -7.170  0.00  0.00    +0.000 OA
ATOM     24  H   UNL     1      -2.245 -37.377  -7.935  0.00  0.00    +0.000 HD
ENDBRANCH   9  23
BRANCH  10  25
ATOM     25  O   UNL     1      -4.113 -31.844  -6.835  0.00  0.00    +0.000 OA
ATOM     26  H   UNL     1      -4.414 -31.514  -7.712  0.00  0.00    +0.000 HD
ENDBRANCH  10  25
BRANCH   4  28
ATOM     27  O   UNL     1      -8.095 -34.334  -3.714  0.00  0.00    +0.000 OA
ATOM     28  C   UNL     1      -6.989 -34.042  -3.244  0.00  0.00    +0.000 C 
BRANCH  28  29
ATOM     29  C   UNL     1      -6.897 -33.162  -2.000  0.00  0.00    +0.000 C 
BRANCH  29  30
ATOM     30  O   UNL     1      -6.641 -33.938  -0.835  0.00  0.00    +0.000 OA
ATOM     31  H   UNL     1      -5.764 -34.350  -0.970  0.00  0.00    +0.000 HD
ENDBRANCH  29  30
ENDBRANCH  28  29
ENDBRANCH   4  28
BRANCH  17  32
ATOM     32  O   UNL     1       0.011 -36.229 -11.386  0.00  0.00    +0.000 OA
ATOM     33  C   UNL     1      -0.595 -36.690 -12.596  0.00  0.00    +0.000 C 
ENDBRANCH  17  32
BRANCH   3  34
ATOM     34  O   UNL     1      -3.546 -36.567  -4.094  0.00  0.00    +0.000 OA
BRANCH  34  36
ATOM     35  O   UNL     1      -3.588 -37.740  -2.053  0.00  0.00    +0.000 OA
ATOM     36  C   UNL     1      -3.581 -37.855  -3.474  0.00  0.00    +0.000 C 
ATOM     37  C   UNL     1      -2.401 -38.688  -3.980  0.00  0.00    +0.000 C 
ATOM     38  C   UNL     1      -1.076 -38.153  -3.432  0.00  0.00    +0.000 C 
ATOM     39  C   UNL     1      -1.151 -38.063  -1.894  0.00  0.00    +0.000 C 
ATOM     40  C   UNL     1      -2.374 -37.211  -1.504  0.00  0.00    +0.000 C 
ATOM     41  C   UNL     1      -2.569 -37.126   0.006  0.00  0.00    +0.000 C 
BRANCH  38  42
ATOM     42  N   UNL     1       0.046 -39.016  -3.845  0.00  0.00    +0.000 NA
ATOM     43  H   UNL     1       0.494 -38.632  -4.675  0.00  0.00    +0.000 HD
ATOM     44  H   UNL     1      -0.360 -39.913  -4.132  0.00  0.00    +0.000 HD
ENDBRANCH  38  42
BRANCH  39  45
ATOM     45  O   UNL     1      -1.244 -39.400  -1.368  0.00  0.00    +0.000 OA
ATOM     46  H   UNL     1      -2.105 -39.761  -1.640  0.00  0.00    +0.000 HD
ENDBRANCH  39  45
ENDBRANCH  34  36
ENDBRANCH   3  34
TORSDOF 11
ENDMDL
MODEL 2
REMARK VINA RESULT:      -6.5      1.843      2.932
REMARK  Name = 
REMARK  13 active torsions:
REMARK  status: ('A' for Active; 'I' for Inactive)
REMARK    1  A    between atoms: O_1  and  C_13
REMARK    2  A    between atoms: O_1  and  C_19
REMARK    3  A    between atoms: O_3  and  C_14
REMARK    4  A    between atoms: O_4  and  C_22
REMARK    5  A    between atoms: O_5  and  C_24
REMARK    6  A    between atoms: O_6  and  C_26
REMARK    7  A    between atoms: O_8  and  C_30
REMARK    8  A    between atoms: O_11  and  C_35
REMARK    9  A    between atoms: O_11  and  C_39
REMARK   10  A    between atoms: N_12  and  C_21
REMARK   11  A    between atoms: C_14  and  C_25
REMARK   12  A    between atoms: C_23  and  C_29
REMARK   13  A    between atoms: C_25  and  C_30
REMARK                            x       y       z     vdW  Elec       q    Type
REMARK                         _______ _______ _______ _____ _____    ______ ____
ROOT
ATOM      1  O   UNL     1      -2.265 -36.837  -6.766  0.00  0.00    +0.000 OA
ATOM      2  O   UNL     1      -4.723 -32.153  -7.301  0.00  0.00    +0.000 OA
ATOM      3  C   UNL     1      -5.577 -36.825  -2.849  0.00  0.00    +0.000 C 
ATOM      4  C   UNL     1      -7.147 -35.073  -1.910  0.00  0.00    +0.000 C 
ATOM      5  C   UNL     1      -6.966 -36.553  -2.269  0.00  0.00    +0.000 C 
ATOM      6  C   UNL     1      -6.962 -34.186  -3.150  0.00  0.00    +0.000 C 
ATOM      7  C   UNL     1      -5.251 -35.892  -3.998  0.00  0.00    +0.000 A 
ATOM      8  C   UNL     1      -5.879 -34.636  -4.115  0.00  0.00    +0.000 A 
ATOM      9  C   UNL     1      -4.268 -36.250  -4.939  0.00  0.00    +0.000 A 
ATOM     10  C   UNL     1      -5.525 -33.790  -5.181  0.00  0.00    +0.000 A 
ATOM     11  C   UNL     1      -3.911 -35.392  -5.998  0.00  0.00    +0.000 A 
ATOM     12  C   UNL     1      -4.545 -34.160  -6.117  0.00  0.00    +0.000 A 
ATOM     13  C   UNL     1      -2.864 -35.785  -6.967  0.00  0.00    +0.000 C 
ATOM     14  C   UNL     1      -4.184 -33.253  -7.222  0.00  0.00    +0.000 C 
ATOM     15  C   UNL     1      -2.550 -34.908  -8.120  0.00  0.00    +0.000 A 
ATOM     16  C   UNL     1      -3.190 -33.671  -8.226  0.00  0.00    +0.000 A 
ATOM     17  C   UNL     1      -1.621 -35.270  -9.108  0.00  0.00    +0.000 A 
ATOM     18  C   UNL     1      -2.908 -32.808  -9.297  0.00  0.00    +0.000 A 
ATOM     19  C   UNL     1      -1.360 -34.419 -10.189  0.00  0.00    +0.000 A 
ATOM     20  C   UNL     1      -1.995 -33.184 -10.277  0.00  0.00    +0.000 A 
ENDROOT
BRANCH   4  21
ATOM     21  O   UNL     1      -6.221 -34.685  -0.887  0.00  0.00    +0.000 OA
ATOM     22  H   UNL     1      -6.039 -33.729  -1.011  0.00  0.00    +0.000 HD
ENDBRANCH   4  21
BRANCH   9  23
ATOM     23  O   UNL     1      -3.672 -37.479  -4.779  0.00  0.00    +0.000 OA
ATOM     24  H   UNL     1      -3.676 -37.947  -5.646  0.00  0.00    +0.000 HD
ENDBRANCH   9  23
BRANCH  10  25
ATOM     25  O   UNL     1      -6.189 -32.590  -5.261  0.00  0.00    +0.000 OA
ATOM     26  H   UNL     1      -5.823 -31.978  -4.582  0.00  0.00    +0.000 HD
ENDBRANCH  10  25
BRANCH   4  28
ATOM     27  O   UNL     1      -8.986 -35.427  -0.346  0.00  0.00    +0.000 OA
ATOM     28  C   UNL     1      -8.561 -34.842  -1.349  0.00  0.00    +0.000 C 
BRANCH  28  29
ATOM     29  C   UNL     1      -9.459 -33.860  -2.098  0.00  0.00    +0.000 C 
BRANCH  29  30
ATOM     30  O   UNL     1     -10.625 -34.503  -2.598  0.00  0.00    +0.000 OA
ATOM     31  H   UNL     1     -11.078 -33.843  -3.162  0.00  0.00    +0.000 HD
ENDBRANCH  29  30
ENDBRANCH  28  29
ENDBRANCH   4  28
BRANCH  17  32
ATOM     32  O   UNL     1      -1.014 -36.498  -9.120  0.00  0.00    +0.000 OA
ATOM     33  C   UNL     1       0.204 -36.450  -9.865  0.00  0.00    +0.000 C 
ENDBRANCH  17  32
BRANCH   3  34
ATOM     34  O   UNL     1      -4.594 -36.569  -1.832  0.00  0.00    +0.000 OA
BRANCH  34  36
ATOM     35  O   UNL     1      -4.875 -38.003   0.016  0.00  0.00    +0.000 OA
ATOM     36  C   UNL     1      -4.151 -37.769  -1.190  0.00  0.00    +0.000 C 
ATOM     37  C   UNL     1      -2.642 -37.681  -0.951  0.00  0.00    +0.000 C 
ATOM     38  C   UNL     1      -2.317 -36.651   0.134  0.00  0.00    +0.000 C 
ATOM     39  C   UNL     1      -3.126 -36.969   1.408  0.00  0.00    +0.000 C 
ATOM     40  C   UNL     1      -4.621 -37.038   1.045  0.00  0.00    +0.000 C 
ATOM     41  C   UNL     1      -5.495 -37.419   2.236  0.00  0.00    +0.000 C 
BRANCH  38  42
ATOM     42  N   UNL     1      -0.872 -36.641   0.428  0.00  0.00    +0.000 NA
ATOM     43  H   UNL     1      -0.637 -37.415   1.046  0.00  0.00    +0.000 HD
ATOM     44  H   UNL     1      -0.684 -35.786   0.961  0.00  0.00    +0.000 HD
ENDBRANCH  38  42
BRANCH  39  45
ATOM     45  O   UNL     1      -2.651 -38.218   1.944  0.00  0.00    +0.000 OA
ATOM     46  H   UNL     1      -3.242 -38.918   1.621  0.00  0.00    +0.000 HD
ENDBRANCH  39  45
ENDBRANCH  34  36
ENDBRANCH   3  34
TORSDOF 11
ENDMDL
MODEL 3
REMARK VINA RESULT:      -6.4      4.467      8.940
REMARK  Name = 
REMARK  13 active torsions:
REMARK  status: ('A' for Active; 'I' for Inactive)
REMARK    1  A    between atoms: O_1  and  C_13
REMARK    2  A    between atoms: O_1  and  C_19
REMARK    3  A    between atoms: O_3  and  C_14
REMARK    4  A    between atoms: O_4  and  C_22
REMARK    5  A    between atoms: O_5  and  C_24
REMARK    6  A    between atoms: O_6  and  C_26
REMARK    7  A    between atoms: O_8  and  C_30
REMARK    8  A    between atoms: O_11  and  C_35
REMARK    9  A    between atoms: O_11  and  C_39
REMARK   10  A    between atoms: N_12  and  C_21
REMARK   11  A    between atoms: C_14  and  C_25
REMARK   12  A    between atoms: C_23  and  C_29
REMARK   13  A    between atoms: C_25  and  C_30
REMARK                            x       y       z     vdW  Elec       q    Type
REMARK                         _______ _______ _______ _____ _____    ______ ____
ROOT
ATOM      1  O   UNL     1     -10.471 -37.283  -7.430  0.00  0.00    +0.000 OA
ATOM      2  O   UNL     1     -10.718 -34.443  -2.943  0.00  0.00    +0.000 OA
ATOM      3  C   UNL     1      -5.537 -36.320  -6.409  0.00  0.00    +0.000 C 
ATOM      4  C   UNL     1      -4.372 -34.887  -4.675  0.00  0.00    +0.000 C 
ATOM      5  C   UNL     1      -4.366 -36.222  -5.431  0.00  0.00    +0.000 C 
ATOM      6  C   UNL     1      -5.676 -34.720  -3.881  0.00  0.00    +0.000 C 
ATOM      7  C   UNL     1      -6.863 -36.027  -5.735  0.00  0.00    +0.000 A 
ATOM      8  C   UNL     1      -6.926 -35.243  -4.566  0.00  0.00    +0.000 A 
ATOM      9  C   UNL     1      -8.062 -36.494  -6.306  0.00  0.00    +0.000 A 
ATOM     10  C   UNL     1      -8.180 -34.973  -3.990  0.00  0.00    +0.000 A 
ATOM     11  C   UNL     1      -9.314 -36.209  -5.728  0.00  0.00    +0.000 A 
ATOM     12  C   UNL     1      -9.370 -35.448  -4.567  0.00  0.00    +0.000 A 
ATOM     13  C   UNL     1     -10.562 -36.700  -6.355  0.00  0.00    +0.000 C 
ATOM     14  C   UNL     1     -10.674 -35.144  -3.949  0.00  0.00    +0.000 C 
ATOM     15  C   UNL     1     -11.870 -36.458  -5.699  0.00  0.00    +0.000 A 
ATOM     16  C   UNL     1     -11.912 -35.689  -4.534  0.00  0.00    +0.000 A 
ATOM     17  C   UNL     1     -13.073 -36.967  -6.212  0.00  0.00    +0.000 A 
ATOM     18  C   UNL     1     -13.134 -35.428  -3.893  0.00  0.00    +0.000 A 
ATOM     19  C   UNL     1     -14.287 -36.728  -5.557  0.00  0.00    +0.000 A 
ATOM     20  C   UNL     1     -14.318 -35.949  -4.404  0.00  0.00    +0.000 A 
ENDROOT
BRANCH   4  21
ATOM     21  O   UNL     1      -4.207 -33.792  -5.583  0.00  0.00    +0.000 OA
ATOM     22  H   UNL     1      -3.375 -33.335  -5.335  0.00  0.00    +0.000 HD
ENDBRANCH   4  21
BRANCH   9  23
ATOM     23  O   UNL     1      -7.953 -37.244  -7.453  0.00  0.00    +0.000 OA
ATOM     24  H   UNL     1      -7.578 -36.676  -8.167  0.00  0.00    +0.000 HD
ENDBRANCH   9  23
BRANCH  10  25
ATOM     25  O   UNL     1      -8.180 -34.227  -2.836  0.00  0.00    +0.000 OA
ATOM     26  H   UNL     1      -8.384 -33.291  -3.062  0.00  0.00    +0.000 HD
ENDBRANCH  10  25
BRANCH   4  28
ATOM     27  O   UNL     1      -2.382 -33.904  -3.661  0.00  0.00    +0.000 OA
ATOM     28  C   UNL     1      -3.190 -34.840  -3.691  0.00  0.00    +0.000 C 
BRANCH  28  29
ATOM     29  C   UNL     1      -3.024 -36.023  -2.741  0.00  0.00    +0.000 C 
BRANCH  29  30
ATOM     30  O   UNL     1      -2.337 -35.641  -1.555  0.00  0.00    +0.000 OA
ATOM     31  H   UNL     1      -2.458 -36.378  -0.922  0.00  0.00    +0.000 HD
ENDBRANCH  29  30
ENDBRANCH  28  29
ENDBRANCH   4  28
BRANCH  17  32
ATOM     32  O   UNL     1     -13.105 -37.798  -7.300  0.00  0.00    +0.000 OA
ATOM     33  C   UNL     1     -14.050 -37.330  -8.264  0.00  0.00    +0.000 C 
ENDBRANCH  17  32
BRANCH   3  34
ATOM     34  O   UNL     1      -5.374 -35.318  -7.427  0.00  0.00    +0.000 OA
BRANCH  34  36
ATOM     35  O   UNL     1      -3.408 -34.620  -8.520  0.00  0.00    +0.000 OA
ATOM     36  C   UNL     1      -4.364 -35.668  -8.378  0.00  0.00    +0.000 C 
ATOM     37  C   UNL     1      -5.030 -36.028  -9.708  0.00  0.00    +0.000 C 
ATOM     38  C   UNL     1      -5.622 -34.786 -10.379  0.00  0.00    +0.000 C 
ATOM     39  C   UNL     1      -4.535 -33.700 -10.508  0.00  0.00    +0.000 C 
ATOM     40  C   UNL     1      -3.934 -33.427  -9.116  0.00  0.00    +0.000 C 
ATOM     41  C   UNL     1      -2.797 -32.413  -9.158  0.00  0.00    +0.000 C 
BRANCH  38  42
ATOM     42  N   UNL     1      -6.176 -35.123 -11.702  0.00  0.00    +0.000 NA
ATOM     43  H   UNL     1      -5.437 -35.468 -12.312  0.00  0.00    +0.000 HD
ATOM     44  H   UNL     1      -6.501 -34.245 -12.120  0.00  0.00    +0.000 HD
ENDBRANCH  38  42
BRANCH  39  45
ATOM     45  O   UNL     1      -3.537 -34.169 -11.434  0.00  0.00    +0.000 OA
ATOM     46  H   UNL     1      -3.548 -35.140 -11.410  0.00  0.00    +0.000 HD
ENDBRANCH  39  45
ENDBRANCH  34  36
ENDBRANCH   3  34
TORSDOF 11
ENDMDL
MODEL 4
REMARK VINA RESULT:      -6.3      2.689      4.749
REMARK  Name = 
REMARK  13 active torsions:
REMARK  status: ('A' for Active; 'I' for Inactive)
REMARK    1  A    between atoms: O_1  and  C_13
REMARK    2  A    between atoms: O_1  and  C_19
REMARK    3  A    between atoms: O_3  and  C_14
REMARK    4  A    between atoms: O_4  and  C_22
REMARK    5  A    between atoms: O_5  and  C_24
REMARK    6  A    between atoms: O_6  and  C_26
REMARK    7  A    between atoms: O_8  and  C_30
REMARK    8  A    between atoms: O_11  and  C_35
REMARK    9  A    between atoms: O_11  and  C_39
REMARK   10  A    between atoms: N_12  and  C_21
REMARK   11  A    between atoms: C_14  and  C_25
REMARK   12  A    between atoms: C_23  and  C_29
REMARK   13  A    between atoms: C_25  and  C_30
REMARK                            x       y       z     vdW  Elec       q    Type
REMARK                         _______ _______ _______ _____ _____    ______ ____
ROOT
ATOM      1  O   UNL     1      -1.987 -37.294  -7.854  0.00  0.00    +0.000 OA
ATOM      2  O   UNL     1      -3.639 -33.125  -4.998  0.00  0.00    +0.000 OA
ATOM      3  C   UNL     1      -1.552 -38.967  -3.025  0.00  0.00    +0.000 C 
ATOM      4  C   UNL     1      -1.825 -37.846  -0.769  0.00  0.00    +0.000 C 
ATOM      5  C   UNL     1      -2.094 -39.107  -1.601  0.00  0.00    +0.000 C 
ATOM      6  C   UNL     1      -2.484 -36.619  -1.416  0.00  0.00    +0.000 C 
ATOM      7  C   UNL     1      -2.043 -37.699  -3.694  0.00  0.00    +0.000 A 
ATOM      8  C   UNL     1      -2.445 -36.584  -2.933  0.00  0.00    +0.000 A 
ATOM      9  C   UNL     1      -2.050 -37.601  -5.099  0.00  0.00    +0.000 A 
ATOM     10  C   UNL     1      -2.867 -35.418  -3.597  0.00  0.00    +0.000 A 
ATOM     11  C   UNL     1      -2.463 -36.425  -5.755  0.00  0.00    +0.000 A 
ATOM     12  C   UNL     1      -2.873 -35.334  -4.999  0.00  0.00    +0.000 A 
ATOM     13  C   UNL     1      -2.448 -36.342  -7.233  0.00  0.00    +0.000 C 
ATOM     14  C   UNL     1      -3.311 -34.097  -5.673  0.00  0.00    +0.000 C 
ATOM     15  C   UNL     1      -2.955 -35.127  -7.915  0.00  0.00    +0.000 A 
ATOM     16  C   UNL     1      -3.361 -34.036  -7.144  0.00  0.00    +0.000 A 
ATOM     17  C   UNL     1      -3.033 -35.028  -9.313  0.00  0.00    +0.000 A 
ATOM     18  C   UNL     1      -3.834 -32.864  -7.756  0.00  0.00    +0.000 A 
ATOM     19  C   UNL     1      -3.530 -33.869  -9.920  0.00  0.00    +0.000 A 
ATOM     20  C   UNL     1      -3.919 -32.783  -9.142  0.00  0.00    +0.000 A 
ENDROOT
BRANCH   4  21
ATOM     21  O   UNL     1      -0.416 -37.628  -0.625  0.00  0.00    +0.000 OA
ATOM     22  H   UNL     1      -0.166 -37.944   0.269  0.00  0.00    +0.000 HD
ENDBRANCH   4  21
BRANCH   9  23
ATOM     23  O   UNL     1      -1.637 -38.709  -5.801  0.00  0.00    +0.000 OA
ATOM     24  H   UNL     1      -2.327 -39.409  -5.721  0.00  0.00    +0.000 HD
ENDBRANCH   9  23
BRANCH  10  25
ATOM     25  O   UNL     1      -3.274 -34.372  -2.804  0.00  0.00    +0.000 OA
ATOM     26  H   UNL     1      -2.649 -34.282  -2.049  0.00  0.00    +0.000 HD
ENDBRANCH  10  25
BRANCH   4  28
ATOM     27  O   UNL     1      -2.181 -39.025   1.337  0.00  0.00    +0.000 OA
ATOM     28  C   UNL     1      -2.401 -38.024   0.646  0.00  0.00    +0.000 C 
BRANCH  28  29
ATOM     29  C   UNL     1      -3.294 -36.907   1.182  0.00  0.00    +0.000 C 
BRANCH  29  30
ATOM     30  O   UNL     1      -2.882 -36.494   2.480  0.00  0.00    +0.000 OA
ATOM     31  H   UNL     1      -3.015 -35.525   2.511  0.00  0.00    +0.000 HD
ENDBRANCH  29  30
ENDBRANCH  28  29
ENDBRANCH   4  28
BRANCH  17  32
ATOM     32  O   UNL     1      -2.734 -36.083 -10.134  0.00  0.00    +0.000 OA
ATOM     33  C   UNL     1      -3.877 -36.462 -10.904  0.00  0.00    +0.000 C 
ENDBRANCH  17  32
BRANCH   3  34
ATOM     34  O   UNL     1      -0.120 -38.862  -2.966  0.00  0.00    +0.000 OA
BRANCH  34  36
ATOM     35  O   UNL     1       1.813 -39.980  -2.218  0.00  0.00    +0.000 OA
ATOM     36  C   UNL     1       0.511 -40.132  -2.777  0.00  0.00    +0.000 C 
ATOM     37  C   UNL     1       0.538 -40.882  -4.111  0.00  0.00    +0.000 C 
ATOM     38  C   UNL     1       1.520 -40.229  -5.087  0.00  0.00    +0.000 C 
ATOM     39  C   UNL     1       2.905 -40.104  -4.422  0.00  0.00    +0.000 C 
ATOM     40  C   UNL     1       2.753 -39.342  -3.092  0.00  0.00    +0.000 C 
ATOM     41  C   UNL     1       4.068 -39.232  -2.327  0.00  0.00    +0.000 C 
BRANCH  38  42
ATOM     42  N   UNL     1       1.613 -41.011  -6.333  0.00  0.00    +0.000 NA
ATOM     43  H   UNL     1       2.571 -41.325  -6.476  0.00  0.00    +0.000 HD
ATOM     44  H   UNL     1       1.408 -40.366  -7.104  0.00  0.00    +0.000 HD
ENDBRANCH  38  42
BRANCH  39  45
ATOM     45  O   UNL     1       3.429 -41.429  -4.218  0.00  0.00    +0.000 OA
ATOM     46  H   UNL     1       3.097 -41.989  -4.939  0.00  0.00    +0.000 HD
ENDBRANCH  39  45
ENDBRANCH  34  36
ENDBRANCH   3  34
TORSDOF 11
ENDMDL
MODEL 5
REMARK VINA RESULT:      -6.1     21.387     24.693
REMARK  Name = 
REMARK  13 active torsions:
REMARK  status: ('A' for Active; 'I' for Inactive)
REMARK    1  A    between atoms: O_1  and  C_13
REMARK    2  A    between atoms: O_1  and  C_19
REMARK    3  A    between atoms: O_3  and  C_14
REMARK    4  A    between atoms: O_4  and  C_22
REMARK    5  A    between atoms: O_5  and  C_24
REMARK    6  A    between atoms: O_6  and  C_26
REMARK    7  A    between atoms: O_8  and  C_30
REMARK    8  A    between atoms: O_11  and  C_35
REMARK    9  A    between atoms: O_11  and  C_39
REMARK   10  A    between atoms: N_12  and  C_21
REMARK   11  A    between atoms: C_14  and  C_25
REMARK   12  A    between atoms: C_23  and  C_29
REMARK   13  A    between atoms: C_25  and  C_30
REMARK                            x       y       z     vdW  Elec       q    Type
REMARK                         _______ _______ _______ _____ _____    ______ ____
ROOT
ATOM      1  O   UNL     1     -16.793 -16.577  -6.532  0.00  0.00    +0.000 OA
ATOM      2  O   UNL     1     -18.290 -11.534  -5.762  0.00  0.00    +0.000 OA
ATOM      3  C   UNL     1     -17.742 -16.418  -1.494  0.00  0.00    +0.000 C 
ATOM      4  C   UNL     1     -18.310 -14.538   0.106  0.00  0.00    +0.000 C 
ATOM      5  C   UNL     1     -18.602 -15.987  -0.305  0.00  0.00    +0.000 C 
ATOM      6  C   UNL     1     -18.585 -13.577  -1.060  0.00  0.00    +0.000 C 
ATOM      7  C   UNL     1     -17.844 -15.442  -2.649  0.00  0.00    +0.000 A 
ATOM      8  C   UNL     1     -18.205 -14.098  -2.434  0.00  0.00    +0.000 A 
ATOM      9  C   UNL     1     -17.521 -15.859  -3.954  0.00  0.00    +0.000 A 
ATOM     10  C   UNL     1     -18.259 -13.219  -3.532  0.00  0.00    +0.000 A 
ATOM     11  C   UNL     1     -17.566 -14.971  -5.046  0.00  0.00    +0.000 A 
ATOM     12  C   UNL     1     -17.939 -13.649  -4.831  0.00  0.00    +0.000 A 
ATOM     13  C   UNL     1     -17.209 -15.429  -6.407  0.00  0.00    +0.000 C 
ATOM     14  C   UNL     1     -17.993 -12.708  -5.965  0.00  0.00    +0.000 C 
ATOM     15  C   UNL     1     -17.332 -14.506  -7.560  0.00  0.00    +0.000 A 
ATOM     16  C   UNL     1     -17.703 -13.180  -7.330  0.00  0.00    +0.000 A 
ATOM     17  C   UNL     1     -17.079 -14.914  -8.879  0.00  0.00    +0.000 A 
ATOM     18  C   UNL     1     -17.818 -12.273  -8.396  0.00  0.00    +0.000 A 
ATOM     19  C   UNL     1     -17.219 -14.016  -9.944  0.00  0.00    +0.000 A 
ATOM     20  C   UNL     1     -17.577 -12.693  -9.701  0.00  0.00    +0.000 A 
ENDROOT
BRANCH   4  21
ATOM     21  O   UNL     1     -16.953 -14.402   0.545  0.00  0.00    +0.000 OA
ATOM     22  H   UNL     1     -16.968 -14.379   1.525  0.00  0.00    +0.000 HD
ENDBRANCH   4  21
BRANCH   9  23
ATOM     23  O   UNL     1     -17.160 -17.176  -4.114  0.00  0.00    +0.000 OA
ATOM     24  H   UNL     1     -16.318 -17.335  -3.627  0.00  0.00    +0.000 HD
ENDBRANCH   9  23
BRANCH  10  25
ATOM     25  O   UNL     1     -18.644 -11.927  -3.268  0.00  0.00    +0.000 OA
ATOM     26  H   UNL     1     -19.520 -11.765  -3.685  0.00  0.00    +0.000 HD
ENDBRANCH  10  25
BRANCH   4  28
ATOM     27  O   UNL     1     -19.834 -14.970   1.963  0.00  0.00    +0.000 OA
ATOM     28  C   UNL     1     -19.209 -14.142   1.291  0.00  0.00    +0.000 C 
BRANCH  28  29
ATOM     29  C   UNL     1     -19.328 -12.653   1.610  0.00  0.00    +0.000 C 
BRANCH  29  30
ATOM     30  O   UNL     1     -18.103 -12.133   2.115  0.00  0.00    +0.000 OA
ATOM     31  H   UNL     1     -18.345 -11.372   2.682  0.00  0.00    +0.000 HD
ENDBRANCH  29  30
ENDBRANCH  28  29
ENDBRANCH   4  28
BRANCH  17  32
ATOM     32  O   UNL     1     -16.793 -16.216  -9.195  0.00  0.00    +0.000 OA
ATOM     33  C   UNL     1     -16.216 -16.302 -10.499  0.00  0.00    +0.000 C 
ENDBRANCH  17  32
BRANCH   3  34
ATOM     34  O   UNL     1     -16.362 -16.420  -1.089  0.00  0.00    +0.000 OA
BRANCH  34  36
ATOM     35  O   UNL     1     -14.812 -17.423   0.373  0.00  0.00    +0.000 OA
ATOM     36  C   UNL     1     -16.004 -17.613  -0.385  0.00  0.00    +0.000 C 
ATOM     37  C   UNL     1     -15.877 -18.765  -1.384  0.00  0.00    +0.000 C 
ATOM     38  C   UNL     1     -14.643 -18.587  -2.273  0.00  0.00    +0.000 C 
ATOM     39  C   UNL     1     -13.393 -18.396  -1.390  0.00  0.00    +0.000 C 
ATOM     40  C   UNL     1     -13.639 -17.220  -0.426  0.00  0.00    +0.000 C 
ATOM     41  C   UNL     1     -12.477 -17.002   0.538  0.00  0.00    +0.000 C 
BRANCH  38  42
ATOM     42  N   UNL     1     -14.473 -19.747  -3.166  0.00  0.00    +0.000 NA
ATOM     43  H   UNL     1     -15.106 -20.496  -2.891  0.00  0.00    +0.000 HD
ATOM     44  H   UNL     1     -13.525 -20.107  -3.009  0.00  0.00    +0.000 HD
ENDBRANCH  38  42
BRANCH  39  45
ATOM     45  O   UNL     1     -13.151 -19.625  -0.679  0.00  0.00    +0.000 OA
ATOM     46  H   UNL     1     -12.304 -19.530  -0.212  0.00  0.00    +0.000 HD
ENDBRANCH  39  45
ENDBRANCH  34  36
ENDBRANCH   3  34
TORSDOF 11
ENDMDL
MODEL 6
REMARK VINA RESULT:      -5.9     19.083     21.921
REMARK  Name = 
REMARK  13 active torsions:
REMARK  status: ('A' for Active; 'I' for Inactive)
REMARK    1  A    between atoms: O_1  and  C_13
REMARK    2  A    between atoms: O_1  and  C_19
REMARK    3  A    between atoms: O_3  and  C_14
REMARK    4  A    between atoms: O_4  and  C_22
REMARK    5  A    between atoms: O_5  and  C_24
REMARK    6  A    between atoms: O_6  and  C_26
REMARK    7  A    between atoms: O_8  and  C_30
REMARK    8  A    between atoms: O_11  and  C_35
REMARK    9  A    between atoms: O_11  and  C_39
REMARK   10  A    between atoms: N_12  and  C_21
REMARK   11  A    between atoms: C_14  and  C_25
REMARK   12  A    between atoms: C_23  and  C_29
REMARK   13  A    between atoms: C_25  and  C_30
REMARK                            x       y       z     vdW  Elec       q    Type
REMARK                         _______ _______ _______ _____ _____    ______ ____
ROOT
ATOM      1  O   UNL     1      -7.765 -18.117 -16.374  0.00  0.00    +0.000 OA
ATOM      2  O   UNL     1      -6.571 -13.171 -14.833  0.00  0.00    +0.000 OA
ATOM      3  C   UNL     1      -2.699 -18.347 -15.601  0.00  0.00    +0.000 C 
ATOM      4  C   UNL     1      -0.945 -16.600 -15.061  0.00  0.00    +0.000 C 
ATOM      5  C   UNL     1      -1.453 -18.020 -14.776  0.00  0.00    +0.000 C 
ATOM      6  C   UNL     1      -2.026 -15.561 -14.732  0.00  0.00    +0.000 C 
ATOM      7  C   UNL     1      -3.774 -17.290 -15.444  0.00  0.00    +0.000 A 
ATOM      8  C   UNL     1      -3.448 -15.972 -15.071  0.00  0.00    +0.000 A 
ATOM      9  C   UNL     1      -5.117 -17.604 -15.727  0.00  0.00    +0.000 A 
ATOM     10  C   UNL     1      -4.475 -15.016 -14.966  0.00  0.00    +0.000 A 
ATOM     11  C   UNL     1      -6.137 -16.638 -15.630  0.00  0.00    +0.000 A 
ATOM     12  C   UNL     1      -5.812 -15.342 -15.247  0.00  0.00    +0.000 A 
ATOM     13  C   UNL     1      -7.540 -16.989 -15.946  0.00  0.00    +0.000 C 
ATOM     14  C   UNL     1      -6.870 -14.321 -15.139  0.00  0.00    +0.000 C 
ATOM     15  C   UNL     1      -8.617 -15.985 -15.769  0.00  0.00    +0.000 A 
ATOM     16  C   UNL     1      -8.276 -14.686 -15.387  0.00  0.00    +0.000 A 
ATOM     17  C   UNL     1      -9.970 -16.290 -15.982  0.00  0.00    +0.000 A 
ATOM     18  C   UNL     1      -9.267 -13.705 -15.223  0.00  0.00    +0.000 A 
ATOM     19  C   UNL     1     -10.959 -15.318 -15.792  0.00  0.00    +0.000 A 
ATOM     20  C   UNL     1     -10.607 -14.023 -15.423  0.00  0.00    +0.000 A 
ENDROOT
BRANCH   4  21
ATOM     21  O   UNL     1      -0.544 -16.474 -16.431  0.00  0.00    +0.000 OA
ATOM     22  H   UNL     1      -0.491 -15.515 -16.628  0.00  0.00    +0.000 HD
ENDBRANCH   4  21
BRANCH   9  23
ATOM     23  O   UNL     1      -5.387 -18.900 -16.101  0.00  0.00    +0.000 OA
ATOM     24  H   UNL     1      -6.124 -18.892 -16.756  0.00  0.00    +0.000 HD
ENDBRANCH   9  23
BRANCH  10  25
ATOM     25  O   UNL     1      -4.103 -13.753 -14.572  0.00  0.00    +0.000 OA
ATOM     26  H   UNL     1      -4.833 -13.127 -14.780  0.00  0.00    +0.000 HD
ENDBRANCH  10  25
BRANCH   4  28
ATOM     27  O   UNL     1       1.090 -15.397 -14.458  0.00  0.00    +0.000 OA
ATOM     28  C   UNL     1       0.295 -16.308 -14.199  0.00  0.00    +0.000 C 
BRANCH  28  29
ATOM     29  C   UNL     1       0.537 -17.213 -12.993  0.00  0.00    +0.000 C 
BRANCH  29  30
ATOM     30  O   UNL     1       0.568 -16.464 -11.784  0.00  0.00    +0.000 OA
ATOM     31  H   UNL     1       0.377 -15.537 -12.033  0.00  0.00    +0.000 HD
ENDBRANCH  29  30
ENDBRANCH  28  29
ENDBRANCH   4  28
BRANCH  17  32
ATOM     32  O   UNL     1     -10.391 -17.559 -16.276  0.00  0.00    +0.000 OA
ATOM     33  C   UNL     1     -10.956 -17.612 -17.588  0.00  0.00    +0.000 C 
ENDBRANCH  17  32
BRANCH   3  34
ATOM     34  O   UNL     1      -2.343 -18.356 -16.993  0.00  0.00    +0.000 OA
BRANCH  34  36
ATOM     35  O   UNL     1      -1.061 -19.414 -18.661  0.00  0.00    +0.000 OA
ATOM     36  C   UNL     1      -1.646 -19.548 -17.369  0.00  0.00    +0.000 C 
ATOM     37  C   UNL     1      -2.608 -20.736 -17.290  0.00  0.00    +0.000 C 
ATOM     38  C   UNL     1      -3.658 -20.667 -18.402  0.00  0.00    +0.000 C 
ATOM     39  C   UNL     1      -2.956 -20.532 -19.768  0.00  0.00    +0.000 C 
ATOM     40  C   UNL     1      -2.014 -19.313 -19.727  0.00  0.00    +0.000 C 
ATOM     41  C   UNL     1      -1.221 -19.143 -21.018  0.00  0.00    +0.000 C 
BRANCH  38  42
ATOM     42  N   UNL     1      -4.520 -21.862 -18.380  0.00  0.00    +0.000 NA
ATOM     43  H   UNL     1      -4.498 -22.324 -19.287  0.00  0.00    +0.000 HD
ATOM     44  H   UNL     1      -5.483 -21.532 -18.253  0.00  0.00    +0.000 HD
ENDBRANCH  38  42
BRANCH  39  45
ATOM     45  O   UNL     1      -2.236 -21.751 -20.028  0.00  0.00    +0.000 OA
ATOM     46  H   UNL     1      -2.056 -21.786 -20.983  0.00  0.00    +0.000 HD
ENDBRANCH  39  45
ENDBRANCH  34  36
ENDBRANCH   3  34
TORSDOF 11
ENDMDL
MODEL 7
REMARK VINA RESULT:      -5.8      3.461      7.342
REMARK  Name = 
REMARK  13 active torsions:
REMARK  status: ('A' for Active; 'I' for Inactive)
REMARK    1  A    between atoms: O_1  and  C_13
REMARK    2  A    between atoms: O_1  and  C_19
REMARK    3  A    between atoms: O_3  and  C_14
REMARK    4  A    between atoms: O_4  and  C_22
REMARK    5  A    between atoms: O_5  and  C_24
REMARK    6  A    between atoms: O_6  and  C_26
REMARK    7  A    between atoms: O_8  and  C_30
REMARK    8  A    between atoms: O_11  and  C_35
REMARK    9  A    between atoms: O_11  and  C_39
REMARK   10  A    between atoms: N_12  and  C_21
REMARK   11  A    between atoms: C_14  and  C_25
REMARK   12  A    between atoms: C_23  and  C_29
REMARK   13  A    between atoms: C_25  and  C_30
REMARK                            x       y       z     vdW  Elec       q    Type
REMARK                         _______ _______ _______ _____ _____    ______ ____
ROOT
ATOM      1  O   UNL     1      -2.919 -34.789  -3.467  0.00  0.00    +0.000 OA
ATOM      2  O   UNL     1      -1.939 -39.346  -6.024  0.00  0.00    +0.000 OA
ATOM      3  C   UNL     1      -1.845 -38.040   0.353  0.00  0.00    +0.000 C 
ATOM      4  C   UNL     1      -1.431 -40.538   0.440  0.00  0.00    +0.000 C 
ATOM      5  C   UNL     1      -1.001 -39.161   0.961  0.00  0.00    +0.000 C 
ATOM      6  C   UNL     1      -1.293 -40.608  -1.088  0.00  0.00    +0.000 C 
ATOM      7  C   UNL     1      -1.880 -38.117  -1.161  0.00  0.00    +0.000 A 
ATOM      8  C   UNL     1      -1.657 -39.335  -1.832  0.00  0.00    +0.000 A 
ATOM      9  C   UNL     1      -2.196 -36.972  -1.917  0.00  0.00    +0.000 A 
ATOM     10  C   UNL     1      -1.727 -39.366  -3.236  0.00  0.00    +0.000 A 
ATOM     11  C   UNL     1      -2.276 -37.015  -3.322  0.00  0.00    +0.000 A 
ATOM     12  C   UNL     1      -2.038 -38.216  -3.980  0.00  0.00    +0.000 A 
ATOM     13  C   UNL     1      -2.622 -35.801  -4.095  0.00  0.00    +0.000 C 
ATOM     14  C   UNL     1      -2.116 -38.274  -5.452  0.00  0.00    +0.000 C 
ATOM     15  C   UNL     1      -2.630 -35.838  -5.577  0.00  0.00    +0.000 A 
ATOM     16  C   UNL     1      -2.394 -37.052  -6.226  0.00  0.00    +0.000 A 
ATOM     17  C   UNL     1      -2.878 -34.697  -6.356  0.00  0.00    +0.000 A 
ATOM     18  C   UNL     1      -2.407 -37.128  -7.628  0.00  0.00    +0.000 A 
ATOM     19  C   UNL     1      -2.864 -34.769  -7.753  0.00  0.00    +0.000 A 
ATOM     20  C   UNL     1      -2.641 -35.987  -8.389  0.00  0.00    +0.000 A 
ENDROOT
BRANCH   4  21
ATOM     21  O   UNL     1      -2.782 -40.823   0.824  0.00  0.00    +0.000 OA
ATOM     22  H   UNL     1      -3.328 -40.057   0.547  0.00  0.00    +0.000 HD
ENDBRANCH   4  21
BRANCH   9  23
ATOM     23  O   UNL     1      -2.420 -35.809  -1.219  0.00  0.00    +0.000 OA
ATOM     24  H   UNL     1      -2.560 -36.032  -0.269  0.00  0.00    +0.000 HD
ENDBRANCH   9  23
BRANCH  10  25
ATOM     25  O   UNL     1      -1.473 -40.574  -3.839  0.00  0.00    +0.000 OA
ATOM     26  H   UNL     1      -1.076 -41.184  -3.176  0.00  0.00    +0.000 HD
ENDBRANCH  10  25
BRANCH   4  28
ATOM     27  O   UNL     1       0.540 -41.971   0.576  0.00  0.00    +0.000 OA
ATOM     28  C   UNL     1      -0.545 -41.631   1.063  0.00  0.00    +0.000 C 
BRANCH  28  29
ATOM     29  C   UNL     1      -1.066 -42.319   2.322  0.00  0.00    +0.000 C 
BRANCH  29  30
ATOM     30  O   UNL     1      -1.659 -41.384   3.215  0.00  0.00    +0.000 OA
ATOM     31  H   UNL     1      -2.539 -41.746   3.443  0.00  0.00    +0.000 HD
ENDBRANCH  29  30
ENDBRANCH  28  29
ENDBRANCH   4  28
BRANCH  17  32
ATOM     32  O   UNL     1      -3.034 -33.456  -5.797  0.00  0.00    +0.000 OA
ATOM     33  C   UNL     1      -4.266 -32.865  -6.219  0.00  0.00    +0.000 C 
ENDBRANCH  17  32
BRANCH   3  34
ATOM     34  O   UNL     1      -3.204 -38.194   0.795  0.00  0.00    +0.000 OA
BRANCH  34  36
ATOM     35  O   UNL     1      -3.835 -38.978   2.925  0.00  0.00    +0.000 OA
ATOM     36  C   UNL     1      -3.368 -37.858   2.176  0.00  0.00    +0.000 C 
ATOM     37  C   UNL     1      -4.304 -36.654   2.292  0.00  0.00    +0.000 C 
ATOM     38  C   UNL     1      -5.741 -37.039   1.929  0.00  0.00    +0.000 C 
ATOM     39  C   UNL     1      -6.183 -38.247   2.780  0.00  0.00    +0.000 C 
ATOM     40  C   UNL     1      -5.167 -39.389   2.589  0.00  0.00    +0.000 C 
ATOM     41  C   UNL     1      -5.486 -40.606   3.452  0.00  0.00    +0.000 C 
BRANCH  38  42
ATOM     42  N   UNL     1      -6.654 -35.900   2.136  0.00  0.00    +0.000 NA
ATOM     43  H   UNL     1      -7.526 -36.224   2.550  0.00  0.00    +0.000 HD
ATOM     44  H   UNL     1      -6.897 -35.542   1.206  0.00  0.00    +0.000 HD
ENDBRANCH  38  42
BRANCH  39  45
ATOM     45  O   UNL     1      -6.259 -37.827   4.155  0.00  0.00    +0.000 OA
ATOM     46  H   UNL     1      -7.154 -38.031   4.473  0.00  0.00    +0.000 HD
ENDBRANCH  39  45
ENDBRANCH  34  36
ENDBRANCH   3  34
TORSDOF 11
ENDMDL
MODEL 8
REMARK VINA RESULT:      -5.8     14.284     18.281
REMARK  Name = 
REMARK  13 active torsions:
REMARK  status: ('A' for Active; 'I' for Inactive)
REMARK    1  A    between atoms: O_1  and  C_13
REMARK    2  A    between atoms: O_1  and  C_19
REMARK    3  A    between atoms: O_3  and  C_14
REMARK    4  A    between atoms: O_4  and  C_22
REMARK    5  A    between atoms: O_5  and  C_24
REMARK    6  A    between atoms: O_6  and  C_26
REMARK    7  A    between atoms: O_8  and  C_30
REMARK    8  A    between atoms: O_11  and  C_35
REMARK    9  A    between atoms: O_11  and  C_39
REMARK   10  A    between atoms: N_12  and  C_21
REMARK   11  A    between atoms: C_14  and  C_25
REMARK   12  A    between atoms: C_23  and  C_29
REMARK   13  A    between atoms: C_25  and  C_30
REMARK                            x       y       z     vdW  Elec       q    Type
REMARK                         _______ _______ _______ _____ _____    ______ ____
ROOT
ATOM      1  O   UNL     1     -10.328 -30.286 -17.241  0.00  0.00    +0.000 OA
ATOM      2  O   UNL     1      -7.073 -26.905 -14.743  0.00  0.00    +0.000 OA
ATOM      3  C   UNL     1     -10.983 -25.920 -19.853  0.00  0.00    +0.000 C 
ATOM      4  C   UNL     1     -10.158 -23.550 -19.506  0.00  0.00    +0.000 C 
ATOM      5  C   UNL     1     -10.426 -24.664 -20.525  0.00  0.00    +0.000 C 
ATOM      6  C   UNL     1      -9.149 -24.015 -18.446  0.00  0.00    +0.000 C 
ATOM      7  C   UNL     1     -10.117 -26.372 -18.694  0.00  0.00    +0.000 A 
ATOM      8  C   UNL     1      -9.284 -25.464 -18.012  0.00  0.00    +0.000 A 
ATOM      9  C   UNL     1     -10.178 -27.706 -18.248  0.00  0.00    +0.000 A 
ATOM     10  C   UNL     1      -8.518 -25.921 -16.924  0.00  0.00    +0.000 A 
ATOM     11  C   UNL     1      -9.417 -28.153 -17.151  0.00  0.00    +0.000 A 
ATOM     12  C   UNL     1      -8.584 -27.256 -16.491  0.00  0.00    +0.000 A 
ATOM     13  C   UNL     1      -9.509 -29.557 -16.691  0.00  0.00    +0.000 C 
ATOM     14  C   UNL     1      -7.779 -27.711 -15.342  0.00  0.00    +0.000 C 
ATOM     15  C   UNL     1      -8.648 -30.035 -15.583  0.00  0.00    +0.000 A 
ATOM     16  C   UNL     1      -7.819 -29.124 -14.926  0.00  0.00    +0.000 A 
ATOM     17  C   UNL     1      -8.642 -31.374 -15.161  0.00  0.00    +0.000 A 
ATOM     18  C   UNL     1      -7.000 -29.538 -13.863  0.00  0.00    +0.000 A 
ATOM     19  C   UNL     1      -7.805 -31.790 -14.118  0.00  0.00    +0.000 A 
ATOM     20  C   UNL     1      -6.993 -30.870 -13.462  0.00  0.00    +0.000 A 
ENDROOT
BRANCH   4  21
ATOM     21  O   UNL     1     -11.378 -23.140 -18.875  0.00  0.00    +0.000 OA
ATOM     22  H   UNL     1     -11.419 -23.592 -18.005  0.00  0.00    +0.000 HD
ENDBRANCH   4  21
BRANCH   9  23
ATOM     23  O   UNL     1     -11.015 -28.554 -18.935  0.00  0.00    +0.000 OA
ATOM     24  H   UNL     1     -11.873 -28.094 -19.089  0.00  0.00    +0.000 HD
ENDBRANCH   9  23
BRANCH  10  25
ATOM     25  O   UNL     1      -7.703 -24.999 -16.314  0.00  0.00    +0.000 OA
ATOM     26  H   UNL     1      -7.170 -25.454 -15.623  0.00  0.00    +0.000 HD
ENDBRANCH  10  25
BRANCH   4  28
ATOM     27  O   UNL     1      -8.444 -22.291 -20.701  0.00  0.00    +0.000 OA
ATOM     28  C   UNL     1      -9.583 -22.316 -20.222  0.00  0.00    +0.000 C 
BRANCH  28  29
ATOM     29  C   UNL     1     -10.476 -21.080 -20.309  0.00  0.00    +0.000 C 
BRANCH  29  30
ATOM     30  O   UNL     1     -11.619 -21.324 -21.119  0.00  0.00    +0.000 OA
ATOM     31  H   UNL     1     -12.397 -21.130 -20.556  0.00  0.00    +0.000 HD
ENDBRANCH  29  30
ENDBRANCH  28  29
ENDBRANCH   4  28
BRANCH  17  32
ATOM     32  O   UNL     1      -9.362 -32.343 -15.807  0.00  0.00    +0.000 OA
ATOM     33  C   UNL     1      -8.494 -33.348 -16.334  0.00  0.00    +0.000 C 
ENDBRANCH  17  32
BRANCH   3  34
ATOM     34  O   UNL     1     -12.272 -25.613 -19.295  0.00  0.00    +0.000 OA
BRANCH  34  36
ATOM     35  O   UNL     1     -13.760 -25.120 -21.054  0.00  0.00    +0.000 OA
ATOM     36  C   UNL     1     -13.345 -26.101 -20.106  0.00  0.00    +0.000 C 
ATOM     37  C   UNL     1     -14.493 -26.550 -19.199  0.00  0.00    +0.000 C 
ATOM     38  C   UNL     1     -15.172 -25.349 -18.536  0.00  0.00    +0.000 C 
ATOM     39  C   UNL     1     -15.600 -24.335 -19.617  0.00  0.00    +0.000 C 
ATOM     40  C   UNL     1     -14.371 -23.963 -20.468  0.00  0.00    +0.000 C 
ATOM     41  C   UNL     1     -14.716 -23.015 -21.611  0.00  0.00    +0.000 C 
BRANCH  38  42
ATOM     42  N   UNL     1     -16.336 -25.780 -17.742  0.00  0.00    +0.000 NA
ATOM     43  H   UNL     1     -16.214 -26.745 -17.440  0.00  0.00    +0.000 HD
ATOM     44  H   UNL     1     -17.143 -25.781 -18.375  0.00  0.00    +0.000 HD
ENDBRANCH  38  42
BRANCH  39  45
ATOM     45  O   UNL     1     -16.636 -24.938 -20.416  0.00  0.00    +0.000 OA
ATOM     46  H   UNL     1     -17.466 -24.475 -20.214  0.00  0.00    +0.000 HD
ENDBRANCH  39  45
ENDBRANCH  34  36
ENDBRANCH   3  34
TORSDOF 11
ENDMDL
MODEL 9
REMARK VINA RESULT:      -5.7     21.179     24.830
REMARK  Name = 
REMARK  13 active torsions:
REMARK  status: ('A' for Active; 'I' for Inactive)
REMARK    1  A    between atoms: O_1  and  C_13
REMARK    2  A    between atoms: O_1  and  C_19
REMARK    3  A    between atoms: O_3  and  C_14
REMARK    4  A    between atoms: O_4  and  C_22
REMARK    5  A    between atoms: O_5  and  C_24
REMARK    6  A    between atoms: O_6  and  C_26
REMARK    7  A    between atoms: O_8  and  C_30
REMARK    8  A    between atoms: O_11  and  C_35
REMARK    9  A    between atoms: O_11  and  C_39
REMARK   10  A    between atoms: N_12  and  C_21
REMARK   11  A    between atoms: C_14  and  C_25
REMARK   12  A    between atoms: C_23  and  C_29
REMARK   13  A    between atoms: C_25  and  C_30
REMARK                            x       y       z     vdW  Elec       q    Type
REMARK                         _______ _______ _______ _____ _____    ______ ____
ROOT
ATOM      1  O   UNL     1     -15.154 -15.084   1.381  0.00  0.00    +0.000 OA
ATOM      2  O   UNL     1     -12.291 -18.929  -0.918  0.00  0.00    +0.000 OA
ATOM      3  C   UNL     1     -18.208 -16.671  -2.422  0.00  0.00    +0.000 C 
ATOM      4  C   UNL     1     -17.889 -18.293  -4.341  0.00  0.00    +0.000 C 
ATOM      5  C   UNL     1     -18.844 -17.786  -3.253  0.00  0.00    +0.000 C 
ATOM      6  C   UNL     1     -16.595 -18.837  -3.718  0.00  0.00    +0.000 C 
ATOM      7  C   UNL     1     -16.852 -17.074  -1.879  0.00  0.00    +0.000 A 
ATOM      8  C   UNL     1     -16.081 -18.067  -2.514  0.00  0.00    +0.000 A 
ATOM      9  C   UNL     1     -16.318 -16.414  -0.756  0.00  0.00    +0.000 A 
ATOM     10  C   UNL     1     -14.815 -18.390  -1.992  0.00  0.00    +0.000 A 
ATOM     11  C   UNL     1     -15.045 -16.735  -0.247  0.00  0.00    +0.000 A 
ATOM     12  C   UNL     1     -14.295 -17.727  -0.868  0.00  0.00    +0.000 A 
ATOM     13  C   UNL     1     -14.499 -16.017   0.927  0.00  0.00    +0.000 C 
ATOM     14  C   UNL     1     -12.961 -18.075  -0.344  0.00  0.00    +0.000 C 
ATOM     15  C   UNL     1     -13.191 -16.414   1.500  0.00  0.00    +0.000 A 
ATOM     16  C   UNL     1     -12.446 -17.409   0.865  0.00  0.00    +0.000 A 
ATOM     17  C   UNL     1     -12.665 -15.816   2.657  0.00  0.00    +0.000 A 
ATOM     18  C   UNL     1     -11.196 -17.801   1.371  0.00  0.00    +0.000 A 
ATOM     19  C   UNL     1     -11.432 -16.227   3.175  0.00  0.00    +0.000 A 
ATOM     20  C   UNL     1     -10.692 -17.211   2.526  0.00  0.00    +0.000 A 
ENDROOT
BRANCH   4  21
ATOM     21  O   UNL     1     -17.583 -17.247  -5.272  0.00  0.00    +0.000 OA
ATOM     22  H   UNL     1     -18.197 -17.347  -6.030  0.00  0.00    +0.000 HD
ENDBRANCH   4  21
BRANCH   9  23
ATOM     23  O   UNL     1     -17.099 -15.442  -0.177  0.00  0.00    +0.000 OA
ATOM     24  H   UNL     1     -17.483 -15.800   0.658  0.00  0.00    +0.000 HD
ENDBRANCH   9  23
BRANCH  10  25
ATOM     25  O   UNL     1     -14.120 -19.385  -2.635  0.00  0.00    +0.000 OA
ATOM     26  H   UNL     1     -14.757 -20.062  -2.957  0.00  0.00    +0.000 HD
ENDBRANCH  10  25
BRANCH   4  28
ATOM     27  O   UNL     1     -18.873 -20.507  -4.632  0.00  0.00    +0.000 OA
ATOM     28  C   UNL     1     -18.562 -19.423  -5.139  0.00  0.00    +0.000 C 
BRANCH  28  29
ATOM     29  C   UNL     1     -18.822 -19.172  -6.623  0.00  0.00    +0.000 C 
BRANCH  29  30
ATOM     30  O   UNL     1     -17.646 -19.377  -7.397  0.00  0.00    +0.000 OA
ATOM     31  H   UNL     1     -17.949 -19.706  -8.268  0.00  0.00    +0.000 HD
ENDBRANCH  29  30
ENDBRANCH  28  29
ENDBRANCH   4  28
BRANCH  17  32
ATOM     32  O   UNL     1     -13.371 -14.895   3.383  0.00  0.00    +0.000 OA
ATOM     33  C   UNL     1     -12.842 -14.783   4.706  0.00  0.00    +0.000 C 
ENDBRANCH  17  32
BRANCH   3  34
ATOM     34  O   UNL     1     -17.980 -15.534  -3.272  0.00  0.00    +0.000 OA
BRANCH  34  36
ATOM     35  O   UNL     1     -19.050 -14.044  -4.749  0.00  0.00    +0.000 OA
ATOM     36  C   UNL     1     -19.186 -14.821  -3.561  0.00  0.00    +0.000 C 
ATOM     37  C   UNL     1     -19.566 -13.965  -2.351  0.00  0.00    +0.000 C 
ATOM     38  C   UNL     1     -18.590 -12.799  -2.175  0.00  0.00    +0.000 C 
ATOM     39  C   UNL     1     -18.499 -11.999  -3.491  0.00  0.00    +0.000 C 
ATOM     40  C   UNL     1     -18.119 -12.960  -4.634  0.00  0.00    +0.000 C 
ATOM     41  C   UNL     1     -18.074 -12.266  -5.991  0.00  0.00    +0.000 C 
BRANCH  38  42
ATOM     42  N   UNL     1     -19.017 -11.925  -1.068  0.00  0.00    +0.000 NA
ATOM     43  H   UNL     1     -18.209 -11.454  -0.665  0.00  0.00    +0.000 HD
ATOM     44  H   UNL     1     -19.384 -12.536  -0.331  0.00  0.00    +0.000 HD
ENDBRANCH  38  42
BRANCH  39  45
ATOM     45  O   UNL     1     -19.772 -11.371  -3.726  0.00  0.00    +0.000 OA
ATOM     46  H   UNL     1     -19.946 -10.773  -2.980  0.00  0.00    +0.000 HD
ENDBRANCH  39  45
ENDBRANCH  34  36
ENDBRANCH   3  34
TORSDOF 11
ENDMDL
