MODEL 1
REMARK VINA RESULT:      -6.4      0.000      0.000
REMARK  Name = Dronabinol.pdbqt.pdb
REMARK  3 active torsions:
REMARK  status: ('A' for Active; 'I' for Inactive)
REMARK    1  A    between atoms: C_13  and  O_18
REMARK    2  A    between atoms: C_16  and  C_20
REMARK    3  A    between atoms: C_21  and  C_22
REMARK                            x       y       z     vdW  Elec       q    Type
REMARK                         _______ _______ _______ _____ _____    ______ ____
ROOT
ATOM      1  O   UNL     1      -4.020 -32.665  -7.235  0.00  0.00    +0.000 OA
ATOM      2  C   UNL     1      -2.903 -34.540  -8.381  0.00  0.00    +0.000 A 
ATOM      3  C   UNL     1      -3.407 -35.427  -7.304  0.00  0.00    +0.000 A 
ATOM      4  C   UNL     1      -3.513 -33.169  -8.493  0.00  0.00    +0.000 C 
ATOM      5  C   UNL     1      -2.046 -35.229  -9.310  0.00  0.00    +0.000 A 
ATOM      6  C   UNL     1      -4.363 -34.919  -6.323  0.00  0.00    +0.000 A 
ATOM      7  C   UNL     1      -1.646 -36.712  -9.196  0.00  0.00    +0.000 A 
ATOM      8  C   UNL     1      -2.887 -36.775  -7.397  0.00  0.00    +0.000 A 
ATOM      9  C   UNL     1      -2.113 -37.544  -8.124  0.00  0.00    +0.000 A 
ATOM     10  C   UNL     1      -4.614 -33.539  -6.357  0.00  0.00    +0.000 A 
ATOM     11  C   UNL     1      -2.424 -32.160  -8.951  0.00  0.00    +0.000 C 
ATOM     12  C   UNL     1      -4.683 -33.204  -9.520  0.00  0.00    +0.000 C 
ATOM     13  C   UNL     1      -5.019 -35.691  -5.356  0.00  0.00    +0.000 A 
ATOM     14  C   UNL     1      -5.470 -32.949  -5.425  0.00  0.00    +0.000 A 
ATOM     15  C   UNL     1      -1.191 -38.528  -7.476  0.00  0.00    +0.000 C 
ATOM     16  C   UNL     1      -6.113 -33.732  -4.473  0.00  0.00    +0.000 A 
ATOM     17  C   UNL     1      -5.891 -35.104  -4.437  0.00  0.00    +0.000 A 
ENDROOT
BRANCH  13  18
ATOM     18  O   UNL     1      -4.825 -37.042  -5.298  0.00  0.00    +0.000 OA
ATOM     19  H   UNL     1      -3.886 -37.224  -5.109  0.00  0.00    +0.000 HD
ENDBRANCH  13  18
BRANCH  16  20
ATOM     20  C   UNL     1      -7.006 -33.130  -3.542  0.00  0.00    +0.000 C 
ATOM     21  C   UNL     1      -7.956 -32.476  -2.533  0.00  0.00    +0.000 C 
BRANCH  21  22
ATOM     22  C   UNL     1      -8.898 -31.816  -1.522  0.00  0.00    +0.000 C 
ATOM     23  C   UNL     1      -9.839 -31.158  -0.507  0.00  0.00    +0.000 C 
ATOM     24  C   UNL     1     -10.778 -30.500   0.509  0.00  0.00    +0.000 C 
ENDBRANCH  21  22
ENDBRANCH  16  20
TORSDOF 3
ENDMDL
MODEL 2
REMARK VINA RESULT:      -5.8      4.240      6.418
REMARK  Name = Dronabinol.pdbqt.pdb
REMARK  3 active torsions:
REMARK  status: ('A' for Active; 'I' for Inactive)
REMARK    1  A    between atoms: C_13  and  O_18
REMARK    2  A    between atoms: C_16  and  C_20
REMARK    3  A    between atoms: C_21  and  C_22
REMARK                            x       y       z     vdW  Elec       q    Type
REMARK                         _______ _______ _______ _____ _____    ______ ____
ROOT
ATOM      1  O   UNL     1      -3.091 -37.792  -6.944  0.00  0.00    +0.000 OA
ATOM      2  C   UNL     1      -3.021 -35.746  -8.316  0.00  0.00    +0.000 A 
ATOM      3  C   UNL     1      -2.888 -34.972  -7.057  0.00  0.00    +0.000 A 
ATOM      4  C   UNL     1      -2.794 -37.232  -8.245  0.00  0.00    +0.000 C 
ATOM      5  C   UNL     1      -3.130 -34.901  -9.477  0.00  0.00    +0.000 A 
ATOM      6  C   UNL     1      -2.676 -35.665  -5.789  0.00  0.00    +0.000 A 
ATOM      7  C   UNL     1      -3.153 -33.362  -9.439  0.00  0.00    +0.000 A 
ATOM      8  C   UNL     1      -2.947 -33.541  -7.269  0.00  0.00    +0.000 A 
ATOM      9  C   UNL     1      -3.062 -32.632  -8.207  0.00  0.00    +0.000 A 
ATOM     10  C   UNL     1      -2.791 -37.064  -5.819  0.00  0.00    +0.000 A 
ATOM     11  C   UNL     1      -3.746 -37.944  -9.244  0.00  0.00    +0.000 C 
ATOM     12  C   UNL     1      -1.310 -37.548  -8.593  0.00  0.00    +0.000 C 
ATOM     13  C   UNL     1      -2.390 -35.046  -4.566  0.00  0.00    +0.000 A 
ATOM     14  C   UNL     1      -2.659 -37.812  -4.648  0.00  0.00    +0.000 A 
ATOM     15  C   UNL     1      -3.904 -31.414  -7.988  0.00  0.00    +0.000 C 
ATOM     16  C   UNL     1      -2.376 -37.179  -3.442  0.00  0.00    +0.000 A 
ATOM     17  C   UNL     1      -2.238 -35.797  -3.398  0.00  0.00    +0.000 A 
ENDROOT
BRANCH  13  18
ATOM     18  O   UNL     1      -2.246 -33.690  -4.492  0.00  0.00    +0.000 OA
ATOM     19  H   UNL     1      -2.290 -33.312  -5.389  0.00  0.00    +0.000 HD
ENDBRANCH  13  18
BRANCH  16  20
ATOM     20  C   UNL     1      -2.216 -37.949  -2.255  0.00  0.00    +0.000 C 
ATOM     21  C   UNL     1      -2.038 -38.789  -0.985  0.00  0.00    +0.000 C 
BRANCH  21  22
ATOM     22  C   UNL     1      -1.853 -39.633   0.279  0.00  0.00    +0.000 C 
ATOM     23  C   UNL     1      -1.664 -40.476   1.545  0.00  0.00    +0.000 C 
ATOM     24  C   UNL     1      -1.475 -41.316   2.812  0.00  0.00    +0.000 C 
ENDBRANCH  21  22
ENDBRANCH  16  20
TORSDOF 3
ENDMDL
MODEL 3
REMARK VINA RESULT:      -5.8      1.189      3.365
REMARK  Name = Dronabinol.pdbqt.pdb
REMARK  3 active torsions:
REMARK  status: ('A' for Active; 'I' for Inactive)
REMARK    1  A    between atoms: C_13  and  O_18
REMARK    2  A    between atoms: C_16  and  C_20
REMARK    3  A    between atoms: C_21  and  C_22
REMARK                            x       y       z     vdW  Elec       q    Type
REMARK                         _______ _______ _______ _____ _____    ______ ____
ROOT
ATOM      1  O   UNL     1      -4.375 -37.104  -5.774  0.00  0.00    +0.000 OA
ATOM      2  C   UNL     1      -2.579 -37.039  -7.461  0.00  0.00    +0.000 A 
ATOM      3  C   UNL     1      -2.827 -35.582  -7.589  0.00  0.00    +0.000 A 
ATOM      4  C   UNL     1      -3.176 -37.743  -6.272  0.00  0.00    +0.000 C 
ATOM      5  C   UNL     1      -1.596 -37.518  -8.398  0.00  0.00    +0.000 A 
ATOM      6  C   UNL     1      -3.728 -34.907  -6.658  0.00  0.00    +0.000 A 
ATOM      7  C   UNL     1      -0.898 -36.643  -9.456  0.00  0.00    +0.000 A 
ATOM      8  C   UNL     1      -2.065 -34.974  -8.659  0.00  0.00    +0.000 A 
ATOM      9  C   UNL     1      -1.181 -35.242  -9.589  0.00  0.00    +0.000 A 
ATOM     10  C   UNL     1      -4.457 -35.733  -5.789  0.00  0.00    +0.000 A 
ATOM     11  C   UNL     1      -3.597 -39.180  -6.686  0.00  0.00    +0.000 C 
ATOM     12  C   UNL     1      -2.129 -37.797  -5.121  0.00  0.00    +0.000 C 
ATOM     13  C   UNL     1      -3.927 -33.522  -6.583  0.00  0.00    +0.000 A 
ATOM     14  C   UNL     1      -5.383 -35.187  -4.900  0.00  0.00    +0.000 A 
ATOM     15  C   UNL     1      -1.290 -34.621 -10.946  0.00  0.00    +0.000 C 
ATOM     16  C   UNL     1      -5.568 -33.810  -4.840  0.00  0.00    +0.000 A 
ATOM     17  C   UNL     1      -4.839 -32.975  -5.679  0.00  0.00    +0.000 A 
ENDROOT
BRANCH  13  18
ATOM     18  O   UNL     1      -3.223 -32.676  -7.392  0.00  0.00    +0.000 OA
ATOM     19  H   UNL     1      -3.838 -32.050  -7.816  0.00  0.00    +0.000 HD
ENDBRANCH  13  18
BRANCH  16  20
ATOM     20  C   UNL     1      -6.495 -33.255  -3.913  0.00  0.00    +0.000 C 
ATOM     21  C   UNL     1      -7.501 -32.669  -2.915  0.00  0.00    +0.000 C 
BRANCH  21  22
ATOM     22  C   UNL     1      -8.510 -32.094  -1.918  0.00  0.00    +0.000 C 
ATOM     23  C   UNL     1      -9.516 -31.514  -0.919  0.00  0.00    +0.000 C 
ATOM     24  C   UNL     1     -10.523 -30.932   0.079  0.00  0.00    +0.000 C 
ENDBRANCH  21  22
ENDBRANCH  16  20
TORSDOF 3
ENDMDL
MODEL 4
REMARK VINA RESULT:      -5.7     18.619     20.424
REMARK  Name = Dronabinol.pdbqt.pdb
REMARK  3 active torsions:
REMARK  status: ('A' for Active; 'I' for Inactive)
REMARK    1  A    between atoms: C_13  and  O_18
REMARK    2  A    between atoms: C_16  and  C_20
REMARK    3  A    between atoms: C_21  and  C_22
REMARK                            x       y       z     vdW  Elec       q    Type
REMARK                         _______ _______ _______ _____ _____    ______ ____
ROOT
ATOM      1  O   UNL     1     -12.064 -16.163   1.367  0.00  0.00    +0.000 OA
ATOM      2  C   UNL     1     -11.301 -17.862   2.982  0.00  0.00    +0.000 A 
ATOM      3  C   UNL     1     -12.236 -18.816   2.337  0.00  0.00    +0.000 A 
ATOM      4  C   UNL     1     -10.995 -16.585   2.246  0.00  0.00    +0.000 C 
ATOM      5  C   UNL     1     -10.645 -18.423   4.134  0.00  0.00    +0.000 A 
ATOM      6  C   UNL     1     -12.922 -18.448   1.100  0.00  0.00    +0.000 A 
ATOM      7  C   UNL     1     -10.902 -19.839   4.683  0.00  0.00    +0.000 A 
ATOM      8  C   UNL     1     -12.320 -20.080   3.036  0.00  0.00    +0.000 A 
ATOM      9  C   UNL     1     -11.840 -20.733   4.067  0.00  0.00    +0.000 A 
ATOM     10  C   UNL     1     -12.784 -17.114   0.687  0.00  0.00    +0.000 A 
ATOM     11  C   UNL     1     -10.805 -15.435   3.273  0.00  0.00    +0.000 C 
ATOM     12  C   UNL     1      -9.702 -16.771   1.399  0.00  0.00    +0.000 C 
ATOM     13  C   UNL     1     -13.708 -19.308   0.323  0.00  0.00    +0.000 A 
ATOM     14  C   UNL     1     -13.445 -16.652  -0.453  0.00  0.00    +0.000 A 
ATOM     15  C   UNL     1     -12.733 -21.587   4.911  0.00  0.00    +0.000 C 
ATOM     16  C   UNL     1     -14.221 -17.521  -1.211  0.00  0.00    +0.000 A 
ATOM     17  C   UNL     1     -14.352 -18.850  -0.828  0.00  0.00    +0.000 A 
ENDROOT
BRANCH  13  18
ATOM     18  O   UNL     1     -13.853 -20.621   0.673  0.00  0.00    +0.000 OA
ATOM     19  H   UNL     1     -13.483 -21.184  -0.031  0.00  0.00    +0.000 HD
ENDBRANCH  13  18
BRANCH  16  20
ATOM     20  C   UNL     1     -14.872 -17.051  -2.387  0.00  0.00    +0.000 C 
ATOM     21  C   UNL     1     -15.580 -16.536  -3.646  0.00  0.00    +0.000 C 
BRANCH  21  22
ATOM     22  C   UNL     1     -16.290 -16.013  -4.898  0.00  0.00    +0.000 C 
ATOM     23  C   UNL     1     -16.996 -15.487  -6.152  0.00  0.00    +0.000 C 
ATOM     24  C   UNL     1     -17.700 -14.962  -7.407  0.00  0.00    +0.000 C 
ENDBRANCH  21  22
ENDBRANCH  16  20
TORSDOF 3
ENDMDL
MODEL 5
REMARK VINA RESULT:      -5.4     16.115     17.205
REMARK  Name = Dronabinol.pdbqt.pdb
REMARK  3 active torsions:
REMARK  status: ('A' for Active; 'I' for Inactive)
REMARK    1  A    between atoms: C_13  and  O_18
REMARK    2  A    between atoms: C_16  and  C_20
REMARK    3  A    between atoms: C_21  and  C_22
REMARK                            x       y       z     vdW  Elec       q    Type
REMARK                         _______ _______ _______ _____ _____    ______ ____
ROOT
ATOM      1  O   UNL     1       0.582 -17.044  -0.742  0.00  0.00    +0.000 OA
ATOM      2  C   UNL     1       2.477 -18.588  -1.062  0.00  0.00    +0.000 A 
ATOM      3  C   UNL     1       1.656 -19.642  -0.417  0.00  0.00    +0.000 A 
ATOM      4  C   UNL     1       1.772 -17.337  -1.512  0.00  0.00    +0.000 C 
ATOM      5  C   UNL     1       3.813 -19.033  -1.362  0.00  0.00    +0.000 A 
ATOM      6  C   UNL     1       0.246 -19.397  -0.124  0.00  0.00    +0.000 A 
ATOM      7  C   UNL     1       4.367 -20.429  -1.022  0.00  0.00    +0.000 A 
ATOM      8  C   UNL     1       2.393 -20.867  -0.188  0.00  0.00    +0.000 A 
ATOM      9  C   UNL     1       3.568 -21.422  -0.363  0.00  0.00    +0.000 A 
ATOM     10  C   UNL     1      -0.208 -18.083  -0.314  0.00  0.00    +0.000 A 
ATOM     11  C   UNL     1       2.716 -16.119  -1.320  0.00  0.00    +0.000 C 
ATOM     12  C   UNL     1       1.370 -17.479  -3.010  0.00  0.00    +0.000 C 
ATOM     13  C   UNL     1      -0.663 -20.355   0.342  0.00  0.00    +0.000 A 
ATOM     14  C   UNL     1      -1.526 -17.736  -0.009  0.00  0.00    +0.000 A 
ATOM     15  C   UNL     1       4.167 -22.288   0.700  0.00  0.00    +0.000 C 
ATOM     16  C   UNL     1      -2.414 -18.701   0.453  0.00  0.00    +0.000 A 
ATOM     17  C   UNL     1      -1.986 -20.012   0.627  0.00  0.00    +0.000 A 
ENDROOT
BRANCH  13  18
ATOM     18  O   UNL     1      -0.273 -21.652   0.520  0.00  0.00    +0.000 OA
ATOM     19  H   UNL     1      -0.060 -22.046  -0.345  0.00  0.00    +0.000 HD
ENDBRANCH  13  18
BRANCH  16  20
ATOM     20  C   UNL     1      -3.764 -18.348   0.736  0.00  0.00    +0.000 C 
ATOM     21  C   UNL     1      -5.213 -17.955   1.043  0.00  0.00    +0.000 C 
BRANCH  21  22
ATOM     22  C   UNL     1      -6.659 -17.552   1.346  0.00  0.00    +0.000 C 
ATOM     23  C   UNL     1      -8.107 -17.153   1.650  0.00  0.00    +0.000 C 
ATOM     24  C   UNL     1      -9.554 -16.756   1.958  0.00  0.00    +0.000 C 
ENDBRANCH  21  22
ENDBRANCH  16  20
TORSDOF 3
ENDMDL
MODEL 6
REMARK VINA RESULT:      -5.4     13.194     16.974
REMARK  Name = Dronabinol.pdbqt.pdb
REMARK  3 active torsions:
REMARK  status: ('A' for Active; 'I' for Inactive)
REMARK    1  A    between atoms: C_13  and  O_18
REMARK    2  A    between atoms: C_16  and  C_20
REMARK    3  A    between atoms: C_21  and  C_22
REMARK                            x       y       z     vdW  Elec       q    Type
REMARK                         _______ _______ _______ _____ _____    ______ ____
ROOT
ATOM      1  O   UNL     1      -4.048 -32.819  11.848  0.00  0.00    +0.000 OA
ATOM      2  C   UNL     1      -1.679 -33.082  12.478  0.00  0.00    +0.000 A 
ATOM      3  C   UNL     1      -1.363 -33.181  11.031  0.00  0.00    +0.000 A 
ATOM      4  C   UNL     1      -3.041 -32.566  12.857  0.00  0.00    +0.000 C 
ATOM      5  C   UNL     1      -0.526 -33.291  13.312  0.00  0.00    +0.000 A 
ATOM      6  C   UNL     1      -2.395 -32.907  10.035  0.00  0.00    +0.000 A 
ATOM      7  C   UNL     1       0.884 -33.625  12.788  0.00  0.00    +0.000 A 
ATOM      8  C   UNL     1       0.023 -33.513  10.781  0.00  0.00    +0.000 A 
ATOM      9  C   UNL     1       1.161 -33.754  11.387  0.00  0.00    +0.000 A 
ATOM     10  C   UNL     1      -3.700 -32.737  10.522  0.00  0.00    +0.000 A 
ATOM     11  C   UNL     1      -3.527 -33.296  14.139  0.00  0.00    +0.000 C 
ATOM     12  C   UNL     1      -2.964 -31.031  13.105  0.00  0.00    +0.000 C 
ATOM     13  C   UNL     1      -2.184 -32.822   8.653  0.00  0.00    +0.000 A 
ATOM     14  C   UNL     1      -4.764 -32.526   9.644  0.00  0.00    +0.000 A 
ATOM     15  C   UNL     1       2.072 -34.834  10.895  0.00  0.00    +0.000 C 
ATOM     16  C   UNL     1      -4.536 -32.445   8.275  0.00  0.00    +0.000 A 
ATOM     17  C   UNL     1      -3.247 -32.590   7.776  0.00  0.00    +0.000 A 
ENDROOT
BRANCH  13  18
ATOM     18  O   UNL     1      -0.928 -32.957   8.133  0.00  0.00    +0.000 OA
ATOM     19  H   UNL     1      -0.462 -32.104   8.194  0.00  0.00    +0.000 HD
ENDBRANCH  13  18
BRANCH  16  20
ATOM     20  C   UNL     1      -5.621 -32.202   7.385  0.00  0.00    +0.000 C 
ATOM     21  C   UNL     1      -6.782 -31.930   6.423  0.00  0.00    +0.000 C 
BRANCH  21  22
ATOM     22  C   UNL     1      -7.937 -31.650   5.457  0.00  0.00    +0.000 C 
ATOM     23  C   UNL     1      -9.091 -31.374   4.487  0.00  0.00    +0.000 C 
ATOM     24  C   UNL     1     -10.246 -31.101   3.518  0.00  0.00    +0.000 C 
ENDBRANCH  21  22
ENDBRANCH  16  20
TORSDOF 3
ENDMDL
MODEL 7
REMARK VINA RESULT:      -5.3      3.641      6.681
REMARK  Name = Dronabinol.pdbqt.pdb
REMARK  3 active torsions:
REMARK  status: ('A' for Active; 'I' for Inactive)
REMARK    1  A    between atoms: C_13  and  O_18
REMARK    2  A    between atoms: C_16  and  C_20
REMARK    3  A    between atoms: C_21  and  C_22
REMARK                            x       y       z     vdW  Elec       q    Type
REMARK                         _______ _______ _______ _____ _____    ______ ____
ROOT
ATOM      1  O   UNL     1     -10.649 -34.454  -2.544  0.00  0.00    +0.000 OA
ATOM      2  C   UNL     1      -9.378 -35.324  -4.469  0.00  0.00    +0.000 A 
ATOM      3  C   UNL     1      -8.175 -34.668  -3.901  0.00  0.00    +0.000 A 
ATOM      4  C   UNL     1     -10.578 -35.470  -3.572  0.00  0.00    +0.000 C 
ATOM      5  C   UNL     1      -9.126 -35.930  -5.750  0.00  0.00    +0.000 A 
ATOM      6  C   UNL     1      -8.223 -34.078  -2.565  0.00  0.00    +0.000 A 
ATOM      7  C   UNL     1      -7.776 -35.880  -6.490  0.00  0.00    +0.000 A 
ATOM      8  C   UNL     1      -7.028 -34.740  -4.781  0.00  0.00    +0.000 A 
ATOM      9  C   UNL     1      -6.634 -35.207  -5.942  0.00  0.00    +0.000 A 
ATOM     10  C   UNL     1      -9.487 -34.012  -1.960  0.00  0.00    +0.000 A 
ATOM     11  C   UNL     1     -11.872 -35.316  -4.417  0.00  0.00    +0.000 C 
ATOM     12  C   UNL     1     -10.544 -36.867  -2.885  0.00  0.00    +0.000 C 
ATOM     13  C   UNL     1      -7.122 -33.567  -1.866  0.00  0.00    +0.000 A 
ATOM     14  C   UNL     1      -9.644 -33.417  -0.707  0.00  0.00    +0.000 A 
ATOM     15  C   UNL     1      -5.740 -34.396  -6.826  0.00  0.00    +0.000 C 
ATOM     16  C   UNL     1      -8.540 -32.914  -0.028  0.00  0.00    +0.000 A 
ATOM     17  C   UNL     1      -7.277 -32.990  -0.604  0.00  0.00    +0.000 A 
ENDROOT
BRANCH  13  18
ATOM     18  O   UNL     1      -5.868 -33.630  -2.404  0.00  0.00    +0.000 OA
ATOM     19  H   UNL     1      -5.711 -34.528  -2.749  0.00  0.00    +0.000 HD
ENDBRANCH  13  18
BRANCH  16  20
ATOM     20  C   UNL     1      -8.702 -32.332   1.261  0.00  0.00    +0.000 C 
ATOM     21  C   UNL     1      -8.865 -31.714   2.654  0.00  0.00    +0.000 C 
BRANCH  21  22
ATOM     22  C   UNL     1      -9.018 -31.099   4.048  0.00  0.00    +0.000 C 
ATOM     23  C   UNL     1      -9.176 -30.482   5.442  0.00  0.00    +0.000 C 
ATOM     24  C   UNL     1      -9.337 -29.867   6.835  0.00  0.00    +0.000 C 
ENDBRANCH  21  22
ENDBRANCH  16  20
TORSDOF 3
ENDMDL
MODEL 8
REMARK VINA RESULT:      -5.3      2.827      8.379
REMARK  Name = Dronabinol.pdbqt.pdb
REMARK  3 active torsions:
REMARK  status: ('A' for Active; 'I' for Inactive)
REMARK    1  A    between atoms: C_13  and  O_18
REMARK    2  A    between atoms: C_16  and  C_20
REMARK    3  A    between atoms: C_21  and  C_22
REMARK                            x       y       z     vdW  Elec       q    Type
REMARK                         _______ _______ _______ _____ _____    ______ ____
ROOT
ATOM      1  O   UNL     1      -2.402 -36.287  -8.222  0.00  0.00    +0.000 OA
ATOM      2  C   UNL     1      -4.137 -36.361  -6.472  0.00  0.00    +0.000 A 
ATOM      3  C   UNL     1      -4.158 -34.878  -6.506  0.00  0.00    +0.000 A 
ATOM      4  C   UNL     1      -3.450 -37.072  -7.606  0.00  0.00    +0.000 C 
ATOM      5  C   UNL     1      -4.990 -36.903  -5.447  0.00  0.00    +0.000 A 
ATOM      6  C   UNL     1      -3.421 -34.158  -7.542  0.00  0.00    +0.000 A 
ATOM      7  C   UNL     1      -5.811 -36.058  -4.455  0.00  0.00    +0.000 A 
ATOM      8  C   UNL     1      -4.992 -34.304  -5.472  0.00  0.00    +0.000 A 
ATOM      9  C   UNL     1      -5.788 -34.623  -4.480  0.00  0.00    +0.000 A 
ATOM     10  C   UNL     1      -2.574 -34.930  -8.352  0.00  0.00    +0.000 A 
ATOM     11  C   UNL     1      -2.762 -38.355  -7.066  0.00  0.00    +0.000 C 
ATOM     12  C   UNL     1      -4.498 -37.441  -8.698  0.00  0.00    +0.000 C 
ATOM     13  C   UNL     1      -3.482 -32.777  -7.768  0.00  0.00    +0.000 A 
ATOM     14  C   UNL     1      -1.787 -34.327  -9.334  0.00  0.00    +0.000 A 
ATOM     15  C   UNL     1      -5.760 -33.847  -3.201  0.00  0.00    +0.000 C 
ATOM     16  C   UNL     1      -1.861 -32.954  -9.544  0.00  0.00    +0.000 A 
ATOM     17  C   UNL     1      -2.710 -32.177  -8.765  0.00  0.00    +0.000 A 
ENDROOT
BRANCH  13  18
ATOM     18  O   UNL     1      -4.310 -31.988  -7.021  0.00  0.00    +0.000 OA
ATOM     19  H   UNL     1      -5.231 -32.127  -7.306  0.00  0.00    +0.000 HD
ENDBRANCH  13  18
BRANCH  16  20
ATOM     20  C   UNL     1      -1.076 -32.347 -10.565  0.00  0.00    +0.000 C 
ATOM     21  C   UNL     1      -0.242 -31.692 -11.672  0.00  0.00    +0.000 C 
BRANCH  21  22
ATOM     22  C   UNL     1       0.582 -31.035 -12.783  0.00  0.00    +0.000 C 
ATOM     23  C   UNL     1       1.409 -30.381 -13.895  0.00  0.00    +0.000 C 
ATOM     24  C   UNL     1       2.234 -29.730 -15.010  0.00  0.00    +0.000 C 
ENDBRANCH  21  22
ENDBRANCH  16  20
TORSDOF 3
ENDMDL
MODEL 9
REMARK VINA RESULT:      -5.1     17.332     20.929
REMARK  Name = Dronabinol.pdbqt.pdb
REMARK  3 active torsions:
REMARK  status: ('A' for Active; 'I' for Inactive)
REMARK    1  A    between atoms: C_13  and  O_18
REMARK    2  A    between atoms: C_16  and  C_20
REMARK    3  A    between atoms: C_21  and  C_22
REMARK                            x       y       z     vdW  Elec       q    Type
REMARK                         _______ _______ _______ _____ _____    ______ ____
ROOT
ATOM      1  O   UNL     1      -3.293 -16.761   1.285  0.00  0.00    +0.000 OA
ATOM      2  C   UNL     1      -5.148 -15.192   0.867  0.00  0.00    +0.000 A 
ATOM      3  C   UNL     1      -4.377 -14.676  -0.291  0.00  0.00    +0.000 A 
ATOM      4  C   UNL     1      -4.704 -16.498   1.469  0.00  0.00    +0.000 C 
ATOM      5  C   UNL     1      -6.363 -14.455   1.096  0.00  0.00    +0.000 A 
ATOM      6  C   UNL     1      -3.162 -15.360  -0.727  0.00  0.00    +0.000 A 
ATOM      7  C   UNL     1      -6.814 -13.234   0.272  0.00  0.00    +0.000 A 
ATOM      8  C   UNL     1      -4.991 -13.517  -0.903  0.00  0.00    +0.000 A 
ATOM      9  C   UNL     1      -6.034 -12.726  -0.820  0.00  0.00    +0.000 A 
ATOM     10  C   UNL     1      -2.691 -16.383   0.110  0.00  0.00    +0.000 A 
ATOM     11  C   UNL     1      -4.936 -16.459   3.004  0.00  0.00    +0.000 C 
ATOM     12  C   UNL     1      -5.513 -17.665   0.830  0.00  0.00    +0.000 C 
ATOM     13  C   UNL     1      -2.435 -15.060  -1.886  0.00  0.00    +0.000 A 
ATOM     14  C   UNL     1      -1.508 -17.059  -0.192  0.00  0.00    +0.000 A 
ATOM     15  C   UNL     1      -5.890 -11.251  -1.022  0.00  0.00    +0.000 C 
ATOM     16  C   UNL     1      -0.799 -16.748  -1.347  0.00  0.00    +0.000 A 
ATOM     17  C   UNL     1      -1.262 -15.750  -2.197  0.00  0.00    +0.000 A 
ENDROOT
BRANCH  13  18
ATOM     18  O   UNL     1      -2.866 -14.087  -2.743  0.00  0.00    +0.000 OA
ATOM     19  H   UNL     1      -3.797 -13.876  -2.547  0.00  0.00    +0.000 HD
ENDBRANCH  13  18
BRANCH  16  20
ATOM     20  C   UNL     1       0.393 -17.458  -1.664  0.00  0.00    +0.000 C 
ATOM     21  C   UNL     1       1.670 -18.229  -2.017  0.00  0.00    +0.000 C 
BRANCH  21  22
ATOM     22  C   UNL     1       2.942 -19.002  -2.378  0.00  0.00    +0.000 C 
ATOM     23  C   UNL     1       4.213 -19.778  -2.736  0.00  0.00    +0.000 C 
ATOM     24  C   UNL     1       5.484 -20.556  -3.094  0.00  0.00    +0.000 C 
ENDBRANCH  21  22
ENDBRANCH  16  20
TORSDOF 3
ENDMDL
