MODEL 1
REMARK VINA RESULT:      -5.7      0.000      0.000
REMARK  Name = Ellipticine.pdbqt.pdb
REMARK  0 active torsions:
REMARK  status: ('A' for Active; 'I' for Inactive)
REMARK                            x       y       z     vdW  Elec       q    Type
REMARK                         _______ _______ _______ _____ _____    ______ ____
ROOT
ATOM      1  N   UNL     1      -3.959 -16.936  -0.635  0.00  0.00    +0.000 N 
ATOM      2  N   UNL     1       0.815 -14.572  -4.220  0.00  0.00    +0.000 NA
ATOM      3  C   UNL     1      -1.819 -17.331  -1.167  0.00  0.00    +0.000 A 
ATOM      4  C   UNL     1      -2.900 -16.471  -1.386  0.00  0.00    +0.000 A 
ATOM      5  C   UNL     1      -0.598 -17.062  -1.836  0.00  0.00    +0.000 A 
ATOM      6  C   UNL     1      -2.276 -18.338  -0.246  0.00  0.00    +0.000 A 
ATOM      7  C   UNL     1      -2.829 -15.357  -2.237  0.00  0.00    +0.000 A 
ATOM      8  C   UNL     1      -1.615 -15.092  -2.900  0.00  0.00    +0.000 A 
ATOM      9  C   UNL     1      -0.508 -15.943  -2.697  0.00  0.00    +0.000 A 
ATOM     10  C   UNL     1      -3.606 -18.063   0.062  0.00  0.00    +0.000 A 
ATOM     11  C   UNL     1       0.593 -17.972  -1.621  0.00  0.00    +0.000 C 
ATOM     12  C   UNL     1      -1.673 -19.463   0.353  0.00  0.00    +0.000 A 
ATOM     13  C   UNL     1      -4.058 -14.495  -2.401  0.00  0.00    +0.000 C 
ATOM     14  C   UNL     1      -4.367 -18.847   0.935  0.00  0.00    +0.000 A 
ATOM     15  C   UNL     1      -1.471 -13.997  -3.765  0.00  0.00    +0.000 A 
ATOM     16  C   UNL     1       0.663 -15.623  -3.385  0.00  0.00    +0.000 A 
ATOM     17  C   UNL     1      -2.415 -20.260   1.228  0.00  0.00    +0.000 A 
ATOM     18  C   UNL     1      -3.740 -19.953   1.512  0.00  0.00    +0.000 A 
ATOM     19  C   UNL     1      -0.258 -13.780  -4.393  0.00  0.00    +0.000 A 
ATOM     20  H   UNL     1      -4.872 -16.496  -0.609  0.00  0.00    +0.000 HD
ENDROOT
TORSDOF 0
ENDMDL
MODEL 2
REMARK VINA RESULT:      -5.6     13.944     14.972
REMARK  Name = Ellipticine.pdbqt.pdb
REMARK  0 active torsions:
REMARK  status: ('A' for Active; 'I' for Inactive)
REMARK                            x       y       z     vdW  Elec       q    Type
REMARK                         _______ _______ _______ _____ _____    ______ ____
ROOT
ATOM      1  N   UNL     1      -5.075 -15.307 -15.234  0.00  0.00    +0.000 N 
ATOM      2  N   UNL     1      -1.126 -20.324 -15.915  0.00  0.00    +0.000 NA
ATOM      3  C   UNL     1      -5.106 -17.499 -15.694  0.00  0.00    +0.000 A 
ATOM      4  C   UNL     1      -4.272 -16.418 -15.392  0.00  0.00    +0.000 A 
ATOM      5  C   UNL     1      -4.511 -18.770 -15.904  0.00  0.00    +0.000 A 
ATOM      6  C   UNL     1      -6.451 -16.988 -15.712  0.00  0.00    +0.000 A 
ATOM      7  C   UNL     1      -2.877 -16.535 -15.287  0.00  0.00    +0.000 A 
ATOM      8  C   UNL     1      -2.290 -17.797 -15.496  0.00  0.00    +0.000 A 
ATOM      9  C   UNL     1      -3.107 -18.906 -15.803  0.00  0.00    +0.000 A 
ATOM     10  C   UNL     1      -6.394 -15.627 -15.423  0.00  0.00    +0.000 A 
ATOM     11  C   UNL     1      -5.383 -19.962 -16.233  0.00  0.00    +0.000 C 
ATOM     12  C   UNL     1      -7.715 -17.567 -15.949  0.00  0.00    +0.000 A 
ATOM     13  C   UNL     1      -2.073 -15.300 -14.956  0.00  0.00    +0.000 C 
ATOM     14  C   UNL     1      -7.529 -14.811 -15.357  0.00  0.00    +0.000 A 
ATOM     15  C   UNL     1      -0.902 -17.989 -15.408  0.00  0.00    +0.000 A 
ATOM     16  C   UNL     1      -2.459 -20.126 -15.997  0.00  0.00    +0.000 A 
ATOM     17  C   UNL     1      -8.860 -16.770 -15.888  0.00  0.00    +0.000 A 
ATOM     18  C   UNL     1      -8.764 -15.415 -15.597  0.00  0.00    +0.000 A 
ATOM     19  C   UNL     1      -0.374 -19.248 -15.622  0.00  0.00    +0.000 A 
ATOM     20  H   UNL     1      -4.725 -14.382 -15.009  0.00  0.00    +0.000 HD
ENDROOT
TORSDOF 0
ENDMDL
MODEL 3
REMARK VINA RESULT:      -5.5     17.628     19.696
REMARK  Name = Ellipticine.pdbqt.pdb
REMARK  0 active torsions:
REMARK  status: ('A' for Active; 'I' for Inactive)
REMARK                            x       y       z     vdW  Elec       q    Type
REMARK                         _______ _______ _______ _____ _____    ______ ____
ROOT
ATOM      1  N   UNL     1      -2.082 -37.745  -6.748  0.00  0.00    +0.000 N 
ATOM      2  N   UNL     1      -4.328 -31.780  -7.525  0.00  0.00    +0.000 NA
ATOM      3  C   UNL     1      -2.642 -35.927  -5.567  0.00  0.00    +0.000 A 
ATOM      4  C   UNL     1      -2.562 -36.457  -6.858  0.00  0.00    +0.000 A 
ATOM      5  C   UNL     1      -3.113 -34.598  -5.412  0.00  0.00    +0.000 A 
ATOM      6  C   UNL     1      -2.187 -36.957  -4.670  0.00  0.00    +0.000 A 
ATOM      7  C   UNL     1      -2.927 -35.734  -8.004  0.00  0.00    +0.000 A 
ATOM      8  C   UNL     1      -3.395 -34.415  -7.848  0.00  0.00    +0.000 A 
ATOM      9  C   UNL     1      -3.486 -33.854  -6.556  0.00  0.00    +0.000 A 
ATOM     10  C   UNL     1      -1.848 -38.069  -5.437  0.00  0.00    +0.000 A 
ATOM     11  C   UNL     1      -3.213 -33.992  -4.029  0.00  0.00    +0.000 C 
ATOM     12  C   UNL     1      -2.034 -37.040  -3.272  0.00  0.00    +0.000 A 
ATOM     13  C   UNL     1      -2.800 -36.405  -9.351  0.00  0.00    +0.000 C 
ATOM     14  C   UNL     1      -1.365 -39.261  -4.885  0.00  0.00    +0.000 A 
ATOM     15  C   UNL     1      -3.777 -33.632  -8.949  0.00  0.00    +0.000 A 
ATOM     16  C   UNL     1      -3.957 -32.543  -6.474  0.00  0.00    +0.000 A 
ATOM     17  C   UNL     1      -1.552 -38.220  -2.699  0.00  0.00    +0.000 A 
ATOM     18  C   UNL     1      -1.225 -39.310  -3.496  0.00  0.00    +0.000 A 
ATOM     19  C   UNL     1      -4.230 -32.342  -8.742  0.00  0.00    +0.000 A 
ATOM     20  H   UNL     1      -1.927 -38.361  -7.538  0.00  0.00    +0.000 HD
ENDROOT
TORSDOF 0
ENDMDL
MODEL 4
REMARK VINA RESULT:      -5.5     17.261     19.521
REMARK  Name = Ellipticine.pdbqt.pdb
REMARK  0 active torsions:
REMARK  status: ('A' for Active; 'I' for Inactive)
REMARK                            x       y       z     vdW  Elec       q    Type
REMARK                         _______ _______ _______ _____ _____    ______ ____
ROOT
ATOM      1  N   UNL     1      -1.652 -35.762  -8.840  0.00  0.00    +0.000 N 
ATOM      2  N   UNL     1      -6.307 -33.565  -5.001  0.00  0.00    +0.000 NA
ATOM      3  C   UNL     1      -2.766 -33.880  -8.352  0.00  0.00    +0.000 A 
ATOM      4  C   UNL     1      -2.645 -35.238  -8.039  0.00  0.00    +0.000 A 
ATOM      5  C   UNL     1      -3.732 -33.111  -7.654  0.00  0.00    +0.000 A 
ATOM      6  C   UNL     1      -1.797 -33.609  -9.382  0.00  0.00    +0.000 A 
ATOM      7  C   UNL     1      -3.436 -35.870  -7.067  0.00  0.00    +0.000 A 
ATOM      8  C   UNL     1      -4.395 -35.105  -6.376  0.00  0.00    +0.000 A 
ATOM      9  C   UNL     1      -4.538 -33.732  -6.672  0.00  0.00    +0.000 A 
ATOM     10  C   UNL     1      -1.125 -34.797  -9.659  0.00  0.00    +0.000 A 
ATOM     11  C   UNL     1      -3.889 -31.639  -7.968  0.00  0.00    +0.000 C 
ATOM     12  C   UNL     1      -1.433 -32.454 -10.103  0.00  0.00    +0.000 A 
ATOM     13  C   UNL     1      -3.221 -37.343  -6.809  0.00  0.00    +0.000 C 
ATOM     14  C   UNL     1      -0.110 -34.896 -10.617  0.00  0.00    +0.000 A 
ATOM     15  C   UNL     1      -5.221 -35.670  -5.392  0.00  0.00    +0.000 A 
ATOM     16  C   UNL     1      -5.506 -33.034  -5.950  0.00  0.00    +0.000 A 
ATOM     17  C   UNL     1      -0.422 -32.530 -11.064  0.00  0.00    +0.000 A 
ATOM     18  C   UNL     1       0.226 -33.734 -11.313  0.00  0.00    +0.000 A 
ATOM     19  C   UNL     1      -6.146 -34.875  -4.742  0.00  0.00    +0.000 A 
ATOM     20  H   UNL     1      -1.359 -36.732  -8.818  0.00  0.00    +0.000 HD
ENDROOT
TORSDOF 0
ENDMDL
MODEL 5
REMARK VINA RESULT:      -5.4     13.489     15.133
REMARK  Name = Ellipticine.pdbqt.pdb
REMARK  0 active torsions:
REMARK  status: ('A' for Active; 'I' for Inactive)
REMARK                            x       y       z     vdW  Elec       q    Type
REMARK                         _______ _______ _______ _____ _____    ______ ____
ROOT
ATOM      1  N   UNL     1      -7.472 -14.676 -15.163  0.00  0.00    +0.000 N 
ATOM      2  N   UNL     1      -2.029 -18.081 -15.199  0.00  0.00    +0.000 NA
ATOM      3  C   UNL     1      -6.685 -16.698 -15.720  0.00  0.00    +0.000 A 
ATOM      4  C   UNL     1      -6.332 -15.452 -15.193  0.00  0.00    +0.000 A 
ATOM      5  C   UNL     1      -5.674 -17.683 -15.855  0.00  0.00    +0.000 A 
ATOM      6  C   UNL     1      -8.095 -16.638 -16.008  0.00  0.00    +0.000 A 
ATOM      7  C   UNL     1      -5.025 -15.135 -14.792  0.00  0.00    +0.000 A 
ATOM      8  C   UNL     1      -4.023 -16.115 -14.926  0.00  0.00    +0.000 A 
ATOM      9  C   UNL     1      -4.351 -17.382 -15.456  0.00  0.00    +0.000 A 
ATOM     10  C   UNL     1      -8.549 -15.371 -15.650  0.00  0.00    +0.000 A 
ATOM     11  C   UNL     1      -6.021 -19.043 -16.422  0.00  0.00    +0.000 C 
ATOM     12  C   UNL     1      -9.024 -17.553 -16.542  0.00  0.00    +0.000 A 
ATOM     13  C   UNL     1      -4.755 -13.757 -14.235  0.00  0.00    +0.000 C 
ATOM     14  C   UNL     1      -9.881 -14.966 -15.796  0.00  0.00    +0.000 A 
ATOM     15  C   UNL     1      -2.695 -15.869 -14.546  0.00  0.00    +0.000 A 
ATOM     16  C   UNL     1      -3.311 -18.305 -15.561  0.00  0.00    +0.000 A 
ATOM     17  C   UNL     1     -10.359 -17.169 -16.696  0.00  0.00    +0.000 A 
ATOM     18  C   UNL     1     -10.776 -15.896 -16.328  0.00  0.00    +0.000 A 
ATOM     19  C   UNL     1      -1.748 -16.865 -14.699  0.00  0.00    +0.000 A 
ATOM     20  H   UNL     1      -7.499 -13.721 -14.824  0.00  0.00    +0.000 HD
ENDROOT
TORSDOF 0
ENDMDL
MODEL 6
REMARK VINA RESULT:      -5.4     19.012     20.484
REMARK  Name = Ellipticine.pdbqt.pdb
REMARK  0 active torsions:
REMARK  status: ('A' for Active; 'I' for Inactive)
REMARK                            x       y       z     vdW  Elec       q    Type
REMARK                         _______ _______ _______ _____ _____    ______ ____
ROOT
ATOM      1  N   UNL     1      -2.402 -36.466  -9.034  0.00  0.00    +0.000 N 
ATOM      2  N   UNL     1       3.494 -34.841 -10.992  0.00  0.00    +0.000 NA
ATOM      3  C   UNL     1      -1.233 -34.700  -9.765  0.00  0.00    +0.000 A 
ATOM      4  C   UNL     1      -1.154 -36.063  -9.463  0.00  0.00    +0.000 A 
ATOM      5  C   UNL     1      -0.065 -34.045 -10.232  0.00  0.00    +0.000 A 
ATOM      6  C   UNL     1      -2.590 -34.298  -9.498  0.00  0.00    +0.000 A 
ATOM      7  C   UNL     1       0.027 -36.809  -9.601  0.00  0.00    +0.000 A 
ATOM      8  C   UNL     1       1.185 -36.156 -10.065  0.00  0.00    +0.000 A 
ATOM      9  C   UNL     1       1.135 -34.780 -10.377  0.00  0.00    +0.000 A 
ATOM     10  C   UNL     1      -3.285 -35.418  -9.047  0.00  0.00    +0.000 A 
ATOM     11  C   UNL     1      -0.115 -32.570 -10.568  0.00  0.00    +0.000 C 
ATOM     12  C   UNL     1      -3.287 -33.078  -9.602  0.00  0.00    +0.000 A 
ATOM     13  C   UNL     1      -0.001 -38.276  -9.246  0.00  0.00    +0.000 C 
ATOM     14  C   UNL     1      -4.638 -35.387  -8.694  0.00  0.00    +0.000 A 
ATOM     15  C   UNL     1       2.401 -36.837 -10.228  0.00  0.00    +0.000 A 
ATOM     16  C   UNL     1       2.317 -34.197 -10.831  0.00  0.00    +0.000 A 
ATOM     17  C   UNL     1      -4.639 -33.025  -9.254  0.00  0.00    +0.000 A 
ATOM     18  C   UNL     1      -5.300 -34.162  -8.808  0.00  0.00    +0.000 A 
ATOM     19  C   UNL     1       3.510 -36.150 -10.686  0.00  0.00    +0.000 A 
ATOM     20  H   UNL     1      -2.625 -37.414  -8.750  0.00  0.00    +0.000 HD
ENDROOT
TORSDOF 0
ENDMDL
MODEL 7
REMARK VINA RESULT:      -5.4     18.863     20.682
REMARK  Name = Ellipticine.pdbqt.pdb
REMARK  0 active torsions:
REMARK  status: ('A' for Active; 'I' for Inactive)
REMARK                            x       y       z     vdW  Elec       q    Type
REMARK                         _______ _______ _______ _____ _____    ______ ____
ROOT
ATOM      1  N   UNL     1      -0.057 -37.008  -9.561  0.00  0.00    +0.000 N 
ATOM      2  N   UNL     1      -5.227 -33.246  -8.963  0.00  0.00    +0.000 NA
ATOM      3  C   UNL     1      -0.702 -34.878  -9.818  0.00  0.00    +0.000 A 
ATOM      4  C   UNL     1      -1.136 -36.155  -9.450  0.00  0.00    +0.000 A 
ATOM      5  C   UNL     1      -1.638 -33.813  -9.786  0.00  0.00    +0.000 A 
ATOM      6  C   UNL     1       0.692 -34.999 -10.157  0.00  0.00    +0.000 A 
ATOM      7  C   UNL     1      -2.454 -36.428  -9.052  0.00  0.00    +0.000 A 
ATOM      8  C   UNL     1      -3.381 -35.370  -9.021  0.00  0.00    +0.000 A 
ATOM      9  C   UNL     1      -2.971 -34.070  -9.387  0.00  0.00    +0.000 A 
ATOM     10  C   UNL     1       1.057 -36.332  -9.986  0.00  0.00    +0.000 A 
ATOM     11  C   UNL     1      -1.202 -32.417 -10.177  0.00  0.00    +0.000 C 
ATOM     12  C   UNL     1       1.676 -34.090 -10.594  0.00  0.00    +0.000 A 
ATOM     13  C   UNL     1      -2.814 -37.846  -8.676  0.00  0.00    +0.000 C 
ATOM     14  C   UNL     1       2.351 -36.808 -10.229  0.00  0.00    +0.000 A 
ATOM     15  C   UNL     1      -4.715 -35.568  -8.634  0.00  0.00    +0.000 A 
ATOM     16  C   UNL     1      -3.940 -33.068  -9.334  0.00  0.00    +0.000 A 
ATOM     17  C   UNL     1       2.973 -34.543 -10.842  0.00  0.00    +0.000 A 
ATOM     18  C   UNL     1       3.301 -35.881 -10.661  0.00  0.00    +0.000 A 
ATOM     19  C   UNL     1      -5.587 -34.495  -8.620  0.00  0.00    +0.000 A 
ATOM     20  H   UNL     1      -0.095 -37.999  -9.354  0.00  0.00    +0.000 HD
ENDROOT
TORSDOF 0
ENDMDL
MODEL 8
REMARK VINA RESULT:      -5.3     17.563     20.240
REMARK  Name = Ellipticine.pdbqt.pdb
REMARK  0 active torsions:
REMARK  status: ('A' for Active; 'I' for Inactive)
REMARK                            x       y       z     vdW  Elec       q    Type
REMARK                         _______ _______ _______ _____ _____    ______ ____
ROOT
ATOM      1  N   UNL     1      -2.536 -36.130  -7.988  0.00  0.00    +0.000 N 
ATOM      2  N   UNL     1      -2.103 -37.344  -1.697  0.00  0.00    +0.000 NA
ATOM      3  C   UNL     1      -2.843 -35.148  -5.998  0.00  0.00    +0.000 A 
ATOM      4  C   UNL     1      -2.460 -36.337  -6.626  0.00  0.00    +0.000 A 
ATOM      5  C   UNL     1      -2.849 -35.106  -4.580  0.00  0.00    +0.000 A 
ATOM      6  C   UNL     1      -3.154 -34.211  -7.046  0.00  0.00    +0.000 A 
ATOM      7  C   UNL     1      -2.082 -37.487  -5.916  0.00  0.00    +0.000 A 
ATOM      8  C   UNL     1      -2.088 -37.443  -4.509  0.00  0.00    +0.000 A 
ATOM      9  C   UNL     1      -2.470 -36.256  -3.849  0.00  0.00    +0.000 A 
ATOM     10  C   UNL     1      -2.953 -34.854  -8.266  0.00  0.00    +0.000 A 
ATOM     11  C   UNL     1      -3.258 -33.835  -3.868  0.00  0.00    +0.000 C 
ATOM     12  C   UNL     1      -3.590 -32.871  -7.064  0.00  0.00    +0.000 A 
ATOM     13  C   UNL     1      -1.686 -38.718  -6.697  0.00  0.00    +0.000 C 
ATOM     14  C   UNL     1      -3.162 -34.233  -9.502  0.00  0.00    +0.000 A 
ATOM     15  C   UNL     1      -1.721 -38.554  -3.734  0.00  0.00    +0.000 A 
ATOM     16  C   UNL     1      -2.453 -36.282  -2.454  0.00  0.00    +0.000 A 
ATOM     17  C   UNL     1      -3.806 -32.232  -8.287  0.00  0.00    +0.000 A 
ATOM     18  C   UNL     1      -3.594 -32.905  -9.484  0.00  0.00    +0.000 A 
ATOM     19  C   UNL     1      -1.744 -38.460  -2.355  0.00  0.00    +0.000 A 
ATOM     20  H   UNL     1      -2.311 -36.835  -8.681  0.00  0.00    +0.000 HD
ENDROOT
TORSDOF 0
ENDMDL
MODEL 9
REMARK VINA RESULT:      -5.3     13.317     14.893
REMARK  Name = Ellipticine.pdbqt.pdb
REMARK  0 active torsions:
REMARK  status: ('A' for Active; 'I' for Inactive)
REMARK                            x       y       z     vdW  Elec       q    Type
REMARK                         _______ _______ _______ _____ _____    ______ ____
ROOT
ATOM      1  N   UNL     1      -3.013 -19.063 -15.737  0.00  0.00    +0.000 N 
ATOM      2  N   UNL     1      -8.391 -15.554 -15.702  0.00  0.00    +0.000 NA
ATOM      3  C   UNL     1      -3.763 -17.029 -15.172  0.00  0.00    +0.000 A 
ATOM      4  C   UNL     1      -4.138 -18.266 -15.707  0.00  0.00    +0.000 A 
ATOM      5  C   UNL     1      -4.756 -16.025 -15.036  0.00  0.00    +0.000 A 
ATOM      6  C   UNL     1      -2.357 -17.118 -14.880  0.00  0.00    +0.000 A 
ATOM      7  C   UNL     1      -5.450 -18.555 -16.114  0.00  0.00    +0.000 A 
ATOM      8  C   UNL     1      -6.433 -17.557 -15.978  0.00  0.00    +0.000 A 
ATOM      9  C   UNL     1      -6.083 -16.299 -15.441  0.00  0.00    +0.000 A 
ATOM     10  C   UNL     1      -1.925 -18.391 -15.243  0.00  0.00    +0.000 A 
ATOM     11  C   UNL     1      -4.385 -14.675 -14.461  0.00  0.00    +0.000 C 
ATOM     12  C   UNL     1      -1.411 -16.224 -14.338  0.00  0.00    +0.000 A 
ATOM     13  C   UNL     1      -5.744 -19.925 -16.679  0.00  0.00    +0.000 C 
ATOM     14  C   UNL     1      -0.602 -18.822 -15.094  0.00  0.00    +0.000 A 
ATOM     15  C   UNL     1      -7.765 -17.775 -16.364  0.00  0.00    +0.000 A 
ATOM     16  C   UNL     1      -7.106 -15.357 -15.335  0.00  0.00    +0.000 A 
ATOM     17  C   UNL     1      -0.085 -16.633 -14.181  0.00  0.00    +0.000 A 
ATOM     18  C   UNL     1       0.309 -17.912 -14.554  0.00  0.00    +0.000 A 
ATOM     19  C   UNL     1      -8.693 -16.761 -16.210  0.00  0.00    +0.000 A 
ATOM     20  H   UNL     1      -3.004 -20.017 -16.081  0.00  0.00    +0.000 HD
ENDROOT
TORSDOF 0
ENDMDL
