MODEL 1
REMARK VINA RESULT:      -6.2      0.000      0.000
REMARK  Name = Enterolactone.pdbqt.pdb
REMARK  2 active torsions:
REMARK  status: ('A' for Active; 'I' for Inactive)
REMARK    1  A    between atoms: C_10  and  O_14
REMARK    2  A    between atoms: C_19  and  O_23
REMARK                            x       y       z     vdW  Elec       q    Type
REMARK                         _______ _______ _______ _____ _____    ______ ____
ROOT
ATOM      1  O   UNL     1       7.367 -29.682  -4.812  0.00  0.00    +0.000 OA
ATOM      2  O   UNL     1       7.272 -31.351  -3.188  0.00  0.00    +0.000 OA
ATOM      3  C   UNL     1       5.773 -28.176  -3.912  0.00  0.00    +0.000 C 
ATOM      4  C   UNL     1       5.898 -29.324  -3.046  0.00  0.00    +0.000 C 
ATOM      5  C   UNL     1       6.705 -28.538  -4.886  0.00  0.00    +0.000 C 
ATOM      6  C   UNL     1       6.914 -30.280  -3.642  0.00  0.00    +0.000 C 
ATOM      7  C   UNL     1       5.283 -26.908  -3.546  0.00  0.00    +0.000 C 
ATOM      8  C   UNL     1       4.777 -25.633  -3.160  0.00  0.00    +0.000 C 
ATOM      9  C   UNL     1       4.957 -25.184  -1.854  0.00  0.00    +0.000 C 
ATOM     10  C   UNL     1       4.448 -23.941  -1.487  0.00  0.00    +0.000 C 
ATOM     11  C   UNL     1       3.767 -23.148  -2.404  0.00  0.00    +0.000 C 
ATOM     12  C   UNL     1       3.592 -23.603  -3.708  0.00  0.00    +0.000 C 
ATOM     13  C   UNL     1       4.096 -24.846  -4.087  0.00  0.00    +0.000 C 
ATOM     14  C   UNL     1       5.250 -29.496  -1.803  0.00  0.00    +0.000 C 
ATOM     15  C   UNL     1       4.596 -29.660  -0.548  0.00  0.00    +0.000 C 
ATOM     16  C   UNL     1       3.279 -29.234  -0.392  0.00  0.00    +0.000 C 
ATOM     17  C   UNL     1       2.656 -29.390   0.843  0.00  0.00    +0.000 C 
ATOM     18  C   UNL     1       3.329 -29.962   1.917  0.00  0.00    +0.000 C 
ATOM     19  C   UNL     1       4.646 -30.386   1.754  0.00  0.00    +0.000 C 
ATOM     20  C   UNL     1       5.281 -30.235   0.522  0.00  0.00    +0.000 C 
ENDROOT
BRANCH  10  21
ATOM     21  O   UNL     1       4.607 -23.472  -0.215  0.00  0.00    +0.000 OA
ATOM     22  H   UNL     1       4.223 -24.117   0.404  0.00  0.00    +0.000 HD
ENDBRANCH  10  21
BRANCH  17  23
ATOM     23  O   UNL     1       1.367 -28.982   1.030  0.00  0.00    +0.000 OA
ATOM     24  H   UNL     1       1.227 -28.828   1.981  0.00  0.00    +0.000 HD
ENDBRANCH  17  23
TORSDOF 2
ENDMDL
MODEL 2
REMARK VINA RESULT:      -5.6     18.957     22.355
REMARK  Name = Enterolactone.pdbqt.pdb
REMARK  2 active torsions:
REMARK  status: ('A' for Active; 'I' for Inactive)
REMARK    1  A    between atoms: C_10  and  O_14
REMARK    2  A    between atoms: C_19  and  O_23
REMARK                            x       y       z     vdW  Elec       q    Type
REMARK                         _______ _______ _______ _____ _____    ______ ____
ROOT
ATOM      1  O   UNL     1     -10.000 -14.251 -14.606  0.00  0.00    +0.000 OA
ATOM      2  O   UNL     1      -9.920 -12.412 -13.176  0.00  0.00    +0.000 OA
ATOM      3  C   UNL     1      -7.695 -14.437 -15.125  0.00  0.00    +0.000 C 
ATOM      4  C   UNL     1      -7.900 -13.335 -14.216  0.00  0.00    +0.000 C 
ATOM      5  C   UNL     1      -9.017 -14.870 -15.240  0.00  0.00    +0.000 C 
ATOM      6  C   UNL     1      -9.380 -13.225 -13.903  0.00  0.00    +0.000 C 
ATOM      7  C   UNL     1      -6.488 -15.131 -15.332  0.00  0.00    +0.000 C 
ATOM      8  C   UNL     1      -5.255 -15.817 -15.535  0.00  0.00    +0.000 C 
ATOM      9  C   UNL     1      -4.349 -15.937 -14.484  0.00  0.00    +0.000 C 
ATOM     10  C   UNL     1      -3.144 -16.600 -14.698  0.00  0.00    +0.000 C 
ATOM     11  C   UNL     1      -2.837 -17.141 -15.942  0.00  0.00    +0.000 C 
ATOM     12  C   UNL     1      -3.748 -17.019 -16.988  0.00  0.00    +0.000 C 
ATOM     13  C   UNL     1      -4.957 -16.356 -16.785  0.00  0.00    +0.000 C 
ATOM     14  C   UNL     1      -6.884 -12.539 -13.641  0.00  0.00    +0.000 C 
ATOM     15  C   UNL     1      -5.854 -11.744 -13.060  0.00  0.00    +0.000 C 
ATOM     16  C   UNL     1      -4.747 -11.380 -13.823  0.00  0.00    +0.000 C 
ATOM     17  C   UNL     1      -3.743 -10.613 -13.240  0.00  0.00    +0.000 C 
ATOM     18  C   UNL     1      -3.830 -10.208 -11.913  0.00  0.00    +0.000 C 
ATOM     19  C   UNL     1      -4.941 -10.575 -11.156  0.00  0.00    +0.000 C 
ATOM     20  C   UNL     1      -5.953 -11.344 -11.728  0.00  0.00    +0.000 C 
ENDROOT
BRANCH  10  21
ATOM     21  O   UNL     1      -2.234 -16.734 -13.690  0.00  0.00    +0.000 OA
ATOM     22  H   UNL     1      -1.546 -16.056 -13.801  0.00  0.00    +0.000 HD
ENDBRANCH  10  21
BRANCH  17  23
ATOM     23  O   UNL     1      -2.644 -10.241 -13.959  0.00  0.00    +0.000 OA
ATOM     24  H   UNL     1      -1.998 -10.969 -13.935  0.00  0.00    +0.000 HD
ENDBRANCH  17  23
TORSDOF 2
ENDMDL
MODEL 3
REMARK VINA RESULT:      -5.5     15.291     19.144
REMARK  Name = Enterolactone.pdbqt.pdb
REMARK  2 active torsions:
REMARK  status: ('A' for Active; 'I' for Inactive)
REMARK    1  A    between atoms: C_10  and  O_14
REMARK    2  A    between atoms: C_19  and  O_23
REMARK                            x       y       z     vdW  Elec       q    Type
REMARK                         _______ _______ _______ _____ _____    ______ ____
ROOT
ATOM      1  O   UNL     1      -5.966  -9.106   1.432  0.00  0.00    +0.000 OA
ATOM      2  O   UNL     1      -3.879  -9.102   0.393  0.00  0.00    +0.000 OA
ATOM      3  C   UNL     1      -6.698 -11.276   0.820  0.00  0.00    +0.000 C 
ATOM      4  C   UNL     1      -5.381 -11.039   0.281  0.00  0.00    +0.000 C 
ATOM      5  C   UNL     1      -6.886 -10.057   1.472  0.00  0.00    +0.000 C 
ATOM      6  C   UNL     1      -4.933  -9.643   0.674  0.00  0.00    +0.000 C 
ATOM      7  C   UNL     1      -7.288 -12.533   1.050  0.00  0.00    +0.000 C 
ATOM      8  C   UNL     1      -7.874 -13.814   1.269  0.00  0.00    +0.000 C 
ATOM      9  C   UNL     1      -7.063 -14.900   1.590  0.00  0.00    +0.000 C 
ATOM     10  C   UNL     1      -7.645 -16.148   1.791  0.00  0.00    +0.000 C 
ATOM     11  C   UNL     1      -9.020 -16.321   1.675  0.00  0.00    +0.000 C 
ATOM     12  C   UNL     1      -9.826 -15.232   1.353  0.00  0.00    +0.000 C 
ATOM     13  C   UNL     1      -9.253 -13.977   1.150  0.00  0.00    +0.000 C 
ATOM     14  C   UNL     1      -4.595 -11.978  -0.424  0.00  0.00    +0.000 C 
ATOM     15  C   UNL     1      -3.807 -12.932  -1.130  0.00  0.00    +0.000 C 
ATOM     16  C   UNL     1      -4.414 -13.800  -2.033  0.00  0.00    +0.000 C 
ATOM     17  C   UNL     1      -3.634 -14.735  -2.708  0.00  0.00    +0.000 C 
ATOM     18  C   UNL     1      -2.263 -14.812  -2.491  0.00  0.00    +0.000 C 
ATOM     19  C   UNL     1      -1.661 -13.941  -1.586  0.00  0.00    +0.000 C 
ATOM     20  C   UNL     1      -2.432 -13.001  -0.904  0.00  0.00    +0.000 C 
ENDROOT
BRANCH  10  21
ATOM     21  O   UNL     1      -6.879 -17.232   2.107  0.00  0.00    +0.000 OA
ATOM     22  H   UNL     1      -6.804 -17.798   1.319  0.00  0.00    +0.000 HD
ENDBRANCH  10  21
BRANCH  17  23
ATOM     23  O   UNL     1      -4.198 -15.600  -3.599  0.00  0.00    +0.000 OA
ATOM     24  H   UNL     1      -3.916 -16.504  -3.373  0.00  0.00    +0.000 HD
ENDBRANCH  17  23
TORSDOF 2
ENDMDL
MODEL 4
REMARK VINA RESULT:      -5.5      2.643      6.146
REMARK  Name = Enterolactone.pdbqt.pdb
REMARK  2 active torsions:
REMARK  status: ('A' for Active; 'I' for Inactive)
REMARK    1  A    between atoms: C_10  and  O_14
REMARK    2  A    between atoms: C_19  and  O_23
REMARK                            x       y       z     vdW  Elec       q    Type
REMARK                         _______ _______ _______ _____ _____    ______ ____
ROOT
ATOM      1  O   UNL     1       5.259 -30.638  -2.895  0.00  0.00    +0.000 OA
ATOM      2  O   UNL     1       6.189 -31.329  -4.919  0.00  0.00    +0.000 OA
ATOM      3  C   UNL     1       5.515 -28.294  -3.133  0.00  0.00    +0.000 C 
ATOM      4  C   UNL     1       6.028 -28.959  -4.307  0.00  0.00    +0.000 C 
ATOM      5  C   UNL     1       5.095 -29.415  -2.417  0.00  0.00    +0.000 C 
ATOM      6  C   UNL     1       5.865 -30.457  -4.133  0.00  0.00    +0.000 C 
ATOM      7  C   UNL     1       5.095 -26.953  -3.054  0.00  0.00    +0.000 C 
ATOM      8  C   UNL     1       4.682 -25.590  -2.990  0.00  0.00    +0.000 C 
ATOM      9  C   UNL     1       4.140 -24.977  -4.118  0.00  0.00    +0.000 C 
ATOM     10  C   UNL     1       3.751 -23.643  -4.046  0.00  0.00    +0.000 C 
ATOM     11  C   UNL     1       3.896 -22.919  -2.867  0.00  0.00    +0.000 C 
ATOM     12  C   UNL     1       4.438 -23.537  -1.743  0.00  0.00    +0.000 C 
ATOM     13  C   UNL     1       4.832 -24.873  -1.804  0.00  0.00    +0.000 C 
ATOM     14  C   UNL     1       6.522 -28.323  -5.467  0.00  0.00    +0.000 C 
ATOM     15  C   UNL     1       7.015 -27.673  -6.636  0.00  0.00    +0.000 C 
ATOM     16  C   UNL     1       7.779 -26.516  -6.515  0.00  0.00    +0.000 C 
ATOM     17  C   UNL     1       8.245 -25.885  -7.665  0.00  0.00    +0.000 C 
ATOM     18  C   UNL     1       7.957 -26.394  -8.927  0.00  0.00    +0.000 C 
ATOM     19  C   UNL     1       7.192 -27.553  -9.040  0.00  0.00    +0.000 C 
ATOM     20  C   UNL     1       6.720 -28.194  -7.896  0.00  0.00    +0.000 C 
ENDROOT
BRANCH  10  21
ATOM     21  O   UNL     1       3.217 -23.013  -5.132  0.00  0.00    +0.000 OA
ATOM     22  H   UNL     1       3.031 -23.679  -5.816  0.00  0.00    +0.000 HD
ENDBRANCH  10  21
BRANCH  17  23
ATOM     23  O   UNL     1       8.995 -24.749  -7.583  0.00  0.00    +0.000 OA
ATOM     24  H   UNL     1       8.526 -24.034  -8.049  0.00  0.00    +0.000 HD
ENDBRANCH  17  23
TORSDOF 2
ENDMDL
MODEL 5
REMARK VINA RESULT:      -5.4      3.893      7.847
REMARK  Name = Enterolactone.pdbqt.pdb
REMARK  2 active torsions:
REMARK  status: ('A' for Active; 'I' for Inactive)
REMARK    1  A    between atoms: C_10  and  O_14
REMARK    2  A    between atoms: C_19  and  O_23
REMARK                            x       y       z     vdW  Elec       q    Type
REMARK                         _______ _______ _______ _____ _____    ______ ____
ROOT
ATOM      1  O   UNL     1       2.435 -34.787   3.305  0.00  0.00    +0.000 OA
ATOM      2  O   UNL     1       2.129 -34.609   1.001  0.00  0.00    +0.000 OA
ATOM      3  C   UNL     1       3.977 -33.016   3.628  0.00  0.00    +0.000 C 
ATOM      4  C   UNL     1       3.619 -33.099   2.232  0.00  0.00    +0.000 C 
ATOM      5  C   UNL     1       3.190 -34.061   4.114  0.00  0.00    +0.000 C 
ATOM      6  C   UNL     1       2.641 -34.243   2.043  0.00  0.00    +0.000 C 
ATOM      7  C   UNL     1       4.500 -31.887   4.287  0.00  0.00    +0.000 C 
ATOM      8  C   UNL     1       5.037 -30.737   4.935  0.00  0.00    +0.000 C 
ATOM      9  C   UNL     1       4.683 -29.465   4.492  0.00  0.00    +0.000 C 
ATOM     10  C   UNL     1       5.222 -28.350   5.127  0.00  0.00    +0.000 C 
ATOM     11  C   UNL     1       6.105 -28.491   6.192  0.00  0.00    +0.000 C 
ATOM     12  C   UNL     1       6.455 -29.766   6.630  0.00  0.00    +0.000 C 
ATOM     13  C   UNL     1       5.921 -30.890   6.002  0.00  0.00    +0.000 C 
ATOM     14  C   UNL     1       4.040 -32.211   1.217  0.00  0.00    +0.000 C 
ATOM     15  C   UNL     1       4.465 -31.308   0.200  0.00  0.00    +0.000 C 
ATOM     16  C   UNL     1       5.768 -30.818   0.209  0.00  0.00    +0.000 C 
ATOM     17  C   UNL     1       6.167 -29.928  -0.784  0.00  0.00    +0.000 C 
ATOM     18  C   UNL     1       5.284 -29.525  -1.779  0.00  0.00    +0.000 C 
ATOM     19  C   UNL     1       3.982 -30.019  -1.783  0.00  0.00    +0.000 C 
ATOM     20  C   UNL     1       3.571 -30.911  -0.793  0.00  0.00    +0.000 C 
ENDROOT
BRANCH  10  21
ATOM     21  O   UNL     1       4.896 -27.089   4.719  0.00  0.00    +0.000 OA
ATOM     22  H   UNL     1       4.949 -26.492   5.485  0.00  0.00    +0.000 HD
ENDBRANCH  10  21
BRANCH  17  23
ATOM     23  O   UNL     1       7.436 -29.428  -0.803  0.00  0.00    +0.000 OA
ATOM     24  H   UNL     1       7.943 -29.843  -0.082  0.00  0.00    +0.000 HD
ENDBRANCH  17  23
TORSDOF 2
ENDMDL
MODEL 6
REMARK VINA RESULT:      -5.3     15.163     18.668
REMARK  Name = Enterolactone.pdbqt.pdb
REMARK  2 active torsions:
REMARK  status: ('A' for Active; 'I' for Inactive)
REMARK    1  A    between atoms: C_10  and  O_14
REMARK    2  A    between atoms: C_19  and  O_23
REMARK                            x       y       z     vdW  Elec       q    Type
REMARK                         _______ _______ _______ _____ _____    ______ ____
ROOT
ATOM      1  O   UNL     1       3.068  -9.330  -9.062  0.00  0.00    +0.000 OA
ATOM      2  O   UNL     1       3.805 -10.649  -7.287  0.00  0.00    +0.000 OA
ATOM      3  C   UNL     1       0.847 -10.139  -9.248  0.00  0.00    +0.000 C 
ATOM      4  C   UNL     1       1.524 -10.823  -8.172  0.00  0.00    +0.000 C 
ATOM      5  C   UNL     1       1.883  -9.296  -9.652  0.00  0.00    +0.000 C 
ATOM      6  C   UNL     1       2.945 -10.301  -8.075  0.00  0.00    +0.000 C 
ATOM      7  C   UNL     1      -0.546 -10.011  -9.406  0.00  0.00    +0.000 C 
ATOM      8  C   UNL     1      -1.959  -9.898  -9.554  0.00  0.00    +0.000 C 
ATOM      9  C   UNL     1      -2.772  -9.860  -8.424  0.00  0.00    +0.000 C 
ATOM     10  C   UNL     1      -4.151  -9.760  -8.582  0.00  0.00    +0.000 C 
ATOM     11  C   UNL     1      -4.723  -9.700  -9.849  0.00  0.00    +0.000 C 
ATOM     12  C   UNL     1      -3.904  -9.738 -10.975  0.00  0.00    +0.000 C 
ATOM     13  C   UNL     1      -2.521  -9.838 -10.828  0.00  0.00    +0.000 C 
ATOM     14  C   UNL     1       0.940 -11.764  -7.295  0.00  0.00    +0.000 C 
ATOM     15  C   UNL     1       0.343 -12.708  -6.411  0.00  0.00    +0.000 C 
ATOM     16  C   UNL     1      -0.577 -13.631  -6.901  0.00  0.00    +0.000 C 
ATOM     17  C   UNL     1      -1.162 -14.540  -6.025  0.00  0.00    +0.000 C 
ATOM     18  C   UNL     1      -0.840 -14.538  -4.672  0.00  0.00    +0.000 C 
ATOM     19  C   UNL     1       0.082 -13.613  -4.188  0.00  0.00    +0.000 C 
ATOM     20  C   UNL     1       0.674 -12.696  -5.056  0.00  0.00    +0.000 C 
ENDROOT
BRANCH  10  21
ATOM     21  O   UNL     1      -4.977  -9.720  -7.496  0.00  0.00    +0.000 OA
ATOM     22  H   UNL     1      -5.416 -10.584  -7.409  0.00  0.00    +0.000 HD
ENDBRANCH  10  21
BRANCH  17  23
ATOM     23  O   UNL     1      -2.068 -15.456  -6.472  0.00  0.00    +0.000 OA
ATOM     24  H   UNL     1      -1.648 -15.991  -7.170  0.00  0.00    +0.000 HD
ENDBRANCH  17  23
TORSDOF 2
ENDMDL
MODEL 7
REMARK VINA RESULT:      -5.3     13.524     17.605
REMARK  Name = Enterolactone.pdbqt.pdb
REMARK  2 active torsions:
REMARK  status: ('A' for Active; 'I' for Inactive)
REMARK    1  A    between atoms: C_10  and  O_14
REMARK    2  A    between atoms: C_19  and  O_23
REMARK                            x       y       z     vdW  Elec       q    Type
REMARK                         _______ _______ _______ _____ _____    ______ ____
ROOT
ATOM      1  O   UNL     1      -2.703 -17.849  -0.420  0.00  0.00    +0.000 OA
ATOM      2  O   UNL     1      -2.487 -15.970  -1.782  0.00  0.00    +0.000 OA
ATOM      3  C   UNL     1      -4.412 -17.080   1.031  0.00  0.00    +0.000 C 
ATOM      4  C   UNL     1      -4.103 -16.057   0.061  0.00  0.00    +0.000 C 
ATOM      5  C   UNL     1      -3.517 -18.060   0.603  0.00  0.00    +0.000 C 
ATOM      6  C   UNL     1      -3.001 -16.562  -0.852  0.00  0.00    +0.000 C 
ATOM      7  C   UNL     1      -5.608 -17.196   1.764  0.00  0.00    +0.000 C 
ATOM      8  C   UNL     1      -6.822 -17.293   2.504  0.00  0.00    +0.000 C 
ATOM      9  C   UNL     1      -8.014 -16.843   1.941  0.00  0.00    +0.000 C 
ATOM     10  C   UNL     1      -9.191 -16.934   2.678  0.00  0.00    +0.000 C 
ATOM     11  C   UNL     1      -9.191 -17.466   3.963  0.00  0.00    +0.000 C 
ATOM     12  C   UNL     1      -7.996 -17.914   4.521  0.00  0.00    +0.000 C 
ATOM     13  C   UNL     1      -6.811 -17.828   3.791  0.00  0.00    +0.000 C 
ATOM     14  C   UNL     1      -4.771 -14.820  -0.077  0.00  0.00    +0.000 C 
ATOM     15  C   UNL     1      -5.453 -13.576  -0.212  0.00  0.00    +0.000 C 
ATOM     16  C   UNL     1      -5.862 -12.882   0.923  0.00  0.00    +0.000 C 
ATOM     17  C   UNL     1      -6.537 -11.674   0.777  0.00  0.00    +0.000 C 
ATOM     18  C   UNL     1      -6.808 -11.155  -0.484  0.00  0.00    +0.000 C 
ATOM     19  C   UNL     1      -6.395 -11.853  -1.617  0.00  0.00    +0.000 C 
ATOM     20  C   UNL     1      -5.718 -13.065  -1.482  0.00  0.00    +0.000 C 
ENDROOT
BRANCH  10  21
ATOM     21  O   UNL     1     -10.376 -16.503   2.155  0.00  0.00    +0.000 OA
ATOM     22  H   UNL     1     -11.042 -16.494   2.864  0.00  0.00    +0.000 HD
ENDBRANCH  10  21
BRANCH  17  23
ATOM     23  O   UNL     1      -6.952 -10.970   1.869  0.00  0.00    +0.000 OA
ATOM     24  H   UNL     1      -7.826 -10.586   1.675  0.00  0.00    +0.000 HD
ENDBRANCH  17  23
TORSDOF 2
ENDMDL
MODEL 8
REMARK VINA RESULT:      -5.3     11.219     12.379
REMARK  Name = Enterolactone.pdbqt.pdb
REMARK  2 active torsions:
REMARK  status: ('A' for Active; 'I' for Inactive)
REMARK    1  A    between atoms: C_10  and  O_14
REMARK    2  A    between atoms: C_19  and  O_23
REMARK                            x       y       z     vdW  Elec       q    Type
REMARK                         _______ _______ _______ _____ _____    ______ ____
ROOT
ATOM      1  O   UNL     1      -0.692 -39.253  -9.111  0.00  0.00    +0.000 OA
ATOM      2  O   UNL     1       0.542 -40.538  -7.608  0.00  0.00    +0.000 OA
ATOM      3  C   UNL     1      -2.001 -38.012  -7.572  0.00  0.00    +0.000 C 
ATOM      4  C   UNL     1      -1.121 -38.901  -6.853  0.00  0.00    +0.000 C 
ATOM      5  C   UNL     1      -1.615 -38.334  -8.874  0.00  0.00    +0.000 C 
ATOM      6  C   UNL     1      -0.299 -39.694  -7.853  0.00  0.00    +0.000 C 
ATOM      7  C   UNL     1      -2.603 -36.846  -7.062  0.00  0.00    +0.000 C 
ATOM      8  C   UNL     1      -3.211 -35.674  -6.527  0.00  0.00    +0.000 C 
ATOM      9  C   UNL     1      -2.555 -34.943  -5.539  0.00  0.00    +0.000 C 
ATOM     10  C   UNL     1      -3.164 -33.806  -5.017  0.00  0.00    +0.000 C 
ATOM     11  C   UNL     1      -4.413 -33.393  -5.467  0.00  0.00    +0.000 C 
ATOM     12  C   UNL     1      -5.065 -34.128  -6.455  0.00  0.00    +0.000 C 
ATOM     13  C   UNL     1      -4.464 -35.269  -6.985  0.00  0.00    +0.000 C 
ATOM     14  C   UNL     1      -0.981 -38.968  -5.449  0.00  0.00    +0.000 C 
ATOM     15  C   UNL     1      -0.841 -39.025  -4.032  0.00  0.00    +0.000 C 
ATOM     16  C   UNL     1      -1.964 -38.896  -3.220  0.00  0.00    +0.000 C 
ATOM     17  C   UNL     1      -1.813 -38.943  -1.837  0.00  0.00    +0.000 C 
ATOM     18  C   UNL     1      -0.559 -39.115  -1.260  0.00  0.00    +0.000 C 
ATOM     19  C   UNL     1       0.561 -39.244  -2.079  0.00  0.00    +0.000 C 
ATOM     20  C   UNL     1       0.421 -39.198  -3.465  0.00  0.00    +0.000 C 
ENDROOT
BRANCH  10  21
ATOM     21  O   UNL     1      -2.548 -33.067  -4.049  0.00  0.00    +0.000 OA
ATOM     22  H   UNL     1      -2.886 -33.349  -3.181  0.00  0.00    +0.000 HD
ENDBRANCH  10  21
BRANCH  17  23
ATOM     23  O   UNL     1      -2.892 -38.818  -1.012  0.00  0.00    +0.000 OA
ATOM     24  H   UNL     1      -3.152 -39.706  -0.707  0.00  0.00    +0.000 HD
ENDBRANCH  17  23
TORSDOF 2
ENDMDL
MODEL 9
REMARK VINA RESULT:      -5.2      2.508      5.844
REMARK  Name = Enterolactone.pdbqt.pdb
REMARK  2 active torsions:
REMARK  status: ('A' for Active; 'I' for Inactive)
REMARK    1  A    between atoms: C_10  and  O_14
REMARK    2  A    between atoms: C_19  and  O_23
REMARK                            x       y       z     vdW  Elec       q    Type
REMARK                         _______ _______ _______ _____ _____    ______ ____
ROOT
ATOM      1  O   UNL     1       5.026 -30.635  -2.393  0.00  0.00    +0.000 OA
ATOM      2  O   UNL     1       4.175 -29.151  -0.810  0.00  0.00    +0.000 OA
ATOM      3  C   UNL     1       5.380 -29.126  -4.187  0.00  0.00    +0.000 C 
ATOM      4  C   UNL     1       4.846 -28.413  -3.051  0.00  0.00    +0.000 C 
ATOM      5  C   UNL     1       5.434 -30.405  -3.631  0.00  0.00    +0.000 C 
ATOM      6  C   UNL     1       4.617 -29.395  -1.917  0.00  0.00    +0.000 C 
ATOM      7  C   UNL     1       6.104 -28.565  -5.255  0.00  0.00    +0.000 C 
ATOM      8  C   UNL     1       6.830 -27.979  -6.333  0.00  0.00    +0.000 C 
ATOM      9  C   UNL     1       7.621 -26.856  -6.104  0.00  0.00    +0.000 C 
ATOM     10  C   UNL     1       8.316 -26.286  -7.167  0.00  0.00    +0.000 C 
ATOM     11  C   UNL     1       8.229 -26.823  -8.447  0.00  0.00    +0.000 C 
ATOM     12  C   UNL     1       7.436 -27.946  -8.669  0.00  0.00    +0.000 C 
ATOM     13  C   UNL     1       6.736 -28.524  -7.612  0.00  0.00    +0.000 C 
ATOM     14  C   UNL     1       4.649 -27.016  -2.970  0.00  0.00    +0.000 C 
ATOM     15  C   UNL     1       4.457 -25.606  -2.895  0.00  0.00    +0.000 C 
ATOM     16  C   UNL     1       3.991 -24.910  -4.008  0.00  0.00    +0.000 C 
ATOM     17  C   UNL     1       3.819 -23.532  -3.925  0.00  0.00    +0.000 C 
ATOM     18  C   UNL     1       4.106 -22.845  -2.750  0.00  0.00    +0.000 C 
ATOM     19  C   UNL     1       4.571 -23.547  -1.641  0.00  0.00    +0.000 C 
ATOM     20  C   UNL     1       4.748 -24.928  -1.712  0.00  0.00    +0.000 C 
ENDROOT
BRANCH  10  21
ATOM     21  O   UNL     1       9.100 -25.186  -6.978  0.00  0.00    +0.000 OA
ATOM     22  H   UNL     1       9.149 -25.000  -6.024  0.00  0.00    +0.000 HD
ENDBRANCH  10  21
BRANCH  17  23
ATOM     23  O   UNL     1       3.366 -22.820  -4.996  0.00  0.00    +0.000 OA
ATOM     24  H   UNL     1       2.708 -22.174  -4.682  0.00  0.00    +0.000 HD
ENDBRANCH  17  23
TORSDOF 2
ENDMDL
