MODEL 1
REMARK VINA RESULT:      -7.0      0.000      0.000
REMARK  Name = 
REMARK  12 active torsions:
REMARK  status: ('A' for Active; 'I' for Inactive)
REMARK    1  A    between atoms: O_2  and  C_12
REMARK    2  A    between atoms: O_2  and  C_24
REMARK    3  A    between atoms: O_3  and  C_18
REMARK    4  A    between atoms: O_4  and  C_23
REMARK    5  A    between atoms: O_5  and  C_25
REMARK    6  A    between atoms: O_6  and  C_26
REMARK    7  A    between atoms: O_8  and  C_27
REMARK    8  A    between atoms: O_9  and  C_31
REMARK    9  A    between atoms: O_10  and  C_32
REMARK   10  A    between atoms: O_11  and  C_33
REMARK   11  A    between atoms: C_13  and  C_16
REMARK   12  A    between atoms: C_24  and  C_28
REMARK                            x       y       z     vdW  Elec       q    Type
REMARK                         _______ _______ _______ _____ _____    ______ ____
ROOT
ATOM      1  O   UNL     1      -7.233 -32.907  -4.217  0.00  0.00    +0.000 OA
ATOM      2  C   UNL     1      -7.203 -35.342  -4.638  0.00  0.00    +0.000 C 
ATOM      3  C   UNL     1      -6.429 -34.012  -4.665  0.00  0.00    +0.000 C 
ATOM      4  C   UNL     1      -7.600 -35.640  -3.193  0.00  0.00    +0.000 C 
ATOM      5  C   UNL     1      -8.116 -34.404  -2.499  0.00  0.00    +0.000 A 
ATOM      6  C   UNL     1      -7.900 -33.130  -3.042  0.00  0.00    +0.000 A 
ATOM      7  C   UNL     1      -8.803 -34.504  -1.283  0.00  0.00    +0.000 A 
ATOM      8  C   UNL     1      -8.399 -31.990  -2.408  0.00  0.00    +0.000 A 
ATOM      9  C   UNL     1      -9.294 -33.372  -0.636  0.00  0.00    +0.000 A 
ATOM     10  C   UNL     1      -9.091 -32.122  -1.209  0.00  0.00    +0.000 A 
ENDROOT
BRANCH   3  11
ATOM     11  C   UNL     1      -5.895 -33.702  -6.057  0.00  0.00    +0.000 A 
ATOM     12  C   UNL     1      -5.005 -32.625  -6.240  0.00  0.00    +0.000 A 
ATOM     13  C   UNL     1      -6.246 -34.495  -7.165  0.00  0.00    +0.000 A 
ATOM     14  C   UNL     1      -5.718 -34.206  -8.420  0.00  0.00    +0.000 A 
ATOM     15  C   UNL     1      -4.486 -32.345  -7.506  0.00  0.00    +0.000 A 
ATOM     16  C   UNL     1      -4.843 -33.136  -8.593  0.00  0.00    +0.000 A 
BRANCH  14  17
ATOM     17  O   UNL     1      -6.032 -34.956  -9.521  0.00  0.00    +0.000 OA
ATOM     18  H   UNL     1      -5.603 -35.825  -9.431  0.00  0.00    +0.000 HD
ENDBRANCH  14  17
BRANCH  15  19
ATOM     19  O   UNL     1      -3.625 -31.301  -7.688  0.00  0.00    +0.000 OA
ATOM     20  H   UNL     1      -2.933 -31.555  -8.317  0.00  0.00    +0.000 HD
ENDBRANCH  15  19
BRANCH  16  21
ATOM     21  O   UNL     1      -4.343 -32.881  -9.840  0.00  0.00    +0.000 OA
ATOM     22  H   UNL     1      -5.132 -32.794 -10.410  0.00  0.00    +0.000 HD
ENDBRANCH  16  21
ENDBRANCH   3  11
BRANCH   7  23
ATOM     23  O   UNL     1      -8.987 -35.742  -0.736  0.00  0.00    +0.000 OA
ATOM     24  H   UNL     1      -9.117 -36.385  -1.453  0.00  0.00    +0.000 HD
ENDBRANCH   7  23
BRANCH  10  25
ATOM     25  O   UNL     1      -9.588 -31.036  -0.552  0.00  0.00    +0.000 OA
ATOM     26  H   UNL     1     -10.203 -30.567  -1.141  0.00  0.00    +0.000 HD
ENDBRANCH  10  25
BRANCH   2  27
ATOM     27  O   UNL     1      -8.404 -35.223  -5.440  0.00  0.00    +0.000 OA
BRANCH  27  29
ATOM     28  O   UNL     1      -8.899 -37.444  -5.744  0.00  0.00    +0.000 OA
ATOM     29  C   UNL     1      -9.220 -36.299  -5.468  0.00  0.00    +0.000 C 
BRANCH  29  30
ATOM     30  C   UNL     1     -10.609 -35.886  -5.143  0.00  0.00    +0.000 A 
ATOM     31  C   UNL     1     -11.015 -35.941  -3.801  0.00  0.00    +0.000 A 
ATOM     32  C   UNL     1     -11.499 -35.442  -6.136  0.00  0.00    +0.000 A 
ATOM     33  C   UNL     1     -12.795 -35.069  -5.784  0.00  0.00    +0.000 A 
ATOM     34  C   UNL     1     -12.312 -35.568  -3.469  0.00  0.00    +0.000 A 
ATOM     35  C   UNL     1     -13.201 -35.138  -4.454  0.00  0.00    +0.000 A 
BRANCH  33  36
ATOM     36  O   UNL     1     -13.674 -34.638  -6.736  0.00  0.00    +0.000 OA
ATOM     37  H   UNL     1     -13.301 -34.790  -7.617  0.00  0.00    +0.000 HD
ENDBRANCH  33  36
BRANCH  34  38
ATOM     38  O   UNL     1     -12.763 -35.607  -2.178  0.00  0.00    +0.000 OA
ATOM     39  H   UNL     1     -13.736 -35.652  -2.189  0.00  0.00    +0.000 HD
ENDBRANCH  34  38
BRANCH  35  40
ATOM     40  O   UNL     1     -14.470 -34.779  -4.091  0.00  0.00    +0.000 OA
ATOM     41  H   UNL     1     -14.920 -35.620  -3.881  0.00  0.00    +0.000 HD
ENDBRANCH  35  40
ENDBRANCH  29  30
ENDBRANCH  27  29
ENDBRANCH   2  27
TORSDOF 12
ENDMDL
MODEL 2
REMARK VINA RESULT:      -6.9      0.708      1.606
REMARK  Name = 
REMARK  12 active torsions:
REMARK  status: ('A' for Active; 'I' for Inactive)
REMARK    1  A    between atoms: O_2  and  C_12
REMARK    2  A    between atoms: O_2  and  C_24
REMARK    3  A    between atoms: O_3  and  C_18
REMARK    4  A    between atoms: O_4  and  C_23
REMARK    5  A    between atoms: O_5  and  C_25
REMARK    6  A    between atoms: O_6  and  C_26
REMARK    7  A    between atoms: O_8  and  C_27
REMARK    8  A    between atoms: O_9  and  C_31
REMARK    9  A    between atoms: O_10  and  C_32
REMARK   10  A    between atoms: O_11  and  C_33
REMARK   11  A    between atoms: C_13  and  C_16
REMARK   12  A    between atoms: C_24  and  C_28
REMARK                            x       y       z     vdW  Elec       q    Type
REMARK                         _______ _______ _______ _____ _____    ______ ____
ROOT
ATOM      1  O   UNL     1      -6.590 -33.296  -3.868  0.00  0.00    +0.000 OA
ATOM      2  C   UNL     1      -7.048 -35.592  -4.660  0.00  0.00    +0.000 C 
ATOM      3  C   UNL     1      -6.064 -34.409  -4.612  0.00  0.00    +0.000 C 
ATOM      4  C   UNL     1      -7.281 -36.083  -3.232  0.00  0.00    +0.000 C 
ATOM      5  C   UNL     1      -7.468 -34.930  -2.278  0.00  0.00    +0.000 A 
ATOM      6  C   UNL     1      -7.112 -33.626  -2.646  0.00  0.00    +0.000 A 
ATOM      7  C   UNL     1      -7.982 -35.144  -0.993  0.00  0.00    +0.000 A 
ATOM      8  C   UNL     1      -7.308 -32.558  -1.768  0.00  0.00    +0.000 A 
ATOM      9  C   UNL     1      -8.170 -34.087  -0.105  0.00  0.00    +0.000 A 
ATOM     10  C   UNL     1      -7.835 -32.800  -0.503  0.00  0.00    +0.000 A 
ENDROOT
BRANCH   3  11
ATOM     11  C   UNL     1      -5.688 -33.935  -6.009  0.00  0.00    +0.000 A 
ATOM     12  C   UNL     1      -4.870 -32.799  -6.166  0.00  0.00    +0.000 A 
ATOM     13  C   UNL     1      -6.112 -34.635  -7.155  0.00  0.00    +0.000 A 
ATOM     14  C   UNL     1      -5.727 -34.196  -8.417  0.00  0.00    +0.000 A 
ATOM     15  C   UNL     1      -4.495 -32.369  -7.440  0.00  0.00    +0.000 A 
ATOM     16  C   UNL     1      -4.923 -33.068  -8.563  0.00  0.00    +0.000 A 
BRANCH  14  17
ATOM     17  O   UNL     1      -6.115 -34.852  -9.555  0.00  0.00    +0.000 OA
ATOM     18  H   UNL     1      -5.339 -35.305  -9.927  0.00  0.00    +0.000 HD
ENDBRANCH  14  17
BRANCH  15  19
ATOM     19  O   UNL     1      -3.705 -31.266  -7.595  0.00  0.00    +0.000 OA
ATOM     20  H   UNL     1      -4.116 -30.657  -8.227  0.00  0.00    +0.000 HD
ENDBRANCH  15  19
BRANCH  16  21
ATOM     21  O   UNL     1      -4.564 -32.666  -9.820  0.00  0.00    +0.000 OA
ATOM     22  H   UNL     1      -4.206 -31.766  -9.699  0.00  0.00    +0.000 HD
ENDBRANCH  16  21
ENDBRANCH   3  11
BRANCH   7  23
ATOM     23  O   UNL     1      -8.301 -36.420  -0.621  0.00  0.00    +0.000 OA
ATOM     24  H   UNL     1      -7.747 -37.041  -1.123  0.00  0.00    +0.000 HD
ENDBRANCH   7  23
BRANCH  10  25
ATOM     25  O   UNL     1      -8.035 -31.788   0.388  0.00  0.00    +0.000 OA
ATOM     26  H   UNL     1      -7.266 -31.194   0.367  0.00  0.00    +0.000 HD
ENDBRANCH  10  25
BRANCH   2  27
ATOM     27  O   UNL     1      -8.311 -35.153  -5.218  0.00  0.00    +0.000 OA
BRANCH  27  29
ATOM     28  O   UNL     1      -8.896 -37.126  -6.234  0.00  0.00    +0.000 OA
ATOM     29  C   UNL     1      -9.172 -36.123  -5.597  0.00  0.00    +0.000 C 
BRANCH  29  30
ATOM     30  C   UNL     1     -10.546 -35.776  -5.156  0.00  0.00    +0.000 A 
ATOM     31  C   UNL     1     -11.480 -35.409  -6.138  0.00  0.00    +0.000 A 
ATOM     32  C   UNL     1     -10.921 -35.817  -3.802  0.00  0.00    +0.000 A 
ATOM     33  C   UNL     1     -12.222 -35.478  -3.434  0.00  0.00    +0.000 A 
ATOM     34  C   UNL     1     -12.772 -35.072  -5.753  0.00  0.00    +0.000 A 
ATOM     35  C   UNL     1     -13.142 -35.100  -4.408  0.00  0.00    +0.000 A 
BRANCH  33  36
ATOM     36  O   UNL     1     -12.602 -35.510  -2.123  0.00  0.00    +0.000 OA
ATOM     37  H   UNL     1     -13.558 -35.656  -2.064  0.00  0.00    +0.000 HD
ENDBRANCH  33  36
BRANCH  34  38
ATOM     38  O   UNL     1     -13.721 -34.701  -6.666  0.00  0.00    +0.000 OA
ATOM     39  H   UNL     1     -13.662 -35.297  -7.435  0.00  0.00    +0.000 HD
ENDBRANCH  34  38
BRANCH  35  40
ATOM     40  O   UNL     1     -14.422 -34.761  -4.065  0.00  0.00    +0.000 OA
ATOM     41  H   UNL     1     -14.870 -35.610  -3.885  0.00  0.00    +0.000 HD
ENDBRANCH  35  40
ENDBRANCH  29  30
ENDBRANCH  27  29
ENDBRANCH   2  27
TORSDOF 12
ENDMDL
MODEL 3
REMARK VINA RESULT:      -6.5      3.231      5.286
REMARK  Name = 
REMARK  12 active torsions:
REMARK  status: ('A' for Active; 'I' for Inactive)
REMARK    1  A    between atoms: O_2  and  C_12
REMARK    2  A    between atoms: O_2  and  C_24
REMARK    3  A    between atoms: O_3  and  C_18
REMARK    4  A    between atoms: O_4  and  C_23
REMARK    5  A    between atoms: O_5  and  C_25
REMARK    6  A    between atoms: O_6  and  C_26
REMARK    7  A    between atoms: O_8  and  C_27
REMARK    8  A    between atoms: O_9  and  C_31
REMARK    9  A    between atoms: O_10  and  C_32
REMARK   10  A    between atoms: O_11  and  C_33
REMARK   11  A    between atoms: C_13  and  C_16
REMARK   12  A    between atoms: C_24  and  C_28
REMARK                            x       y       z     vdW  Elec       q    Type
REMARK                         _______ _______ _______ _____ _____    ______ ____
ROOT
ATOM      1  O   UNL     1      -6.693 -32.972  -4.850  0.00  0.00    +0.000 OA
ATOM      2  C   UNL     1      -5.092 -34.813  -4.454  0.00  0.00    +0.000 C 
ATOM      3  C   UNL     1      -5.345 -33.425  -5.069  0.00  0.00    +0.000 C 
ATOM      4  C   UNL     1      -5.286 -34.713  -2.941  0.00  0.00    +0.000 C 
ATOM      5  C   UNL     1      -6.509 -33.901  -2.597  0.00  0.00    +0.000 A 
ATOM      6  C   UNL     1      -7.127 -33.087  -3.556  0.00  0.00    +0.000 A 
ATOM      7  C   UNL     1      -7.039 -33.927  -1.302  0.00  0.00    +0.000 A 
ATOM      8  C   UNL     1      -8.272 -32.355  -3.239  0.00  0.00    +0.000 A 
ATOM      9  C   UNL     1      -8.175 -33.190  -0.971  0.00  0.00    +0.000 A 
ATOM     10  C   UNL     1      -8.785 -32.412  -1.947  0.00  0.00    +0.000 A 
ENDROOT
BRANCH   3  11
ATOM     11  C   UNL     1      -5.057 -33.412  -6.564  0.00  0.00    +0.000 A 
ATOM     12  C   UNL     1      -3.803 -32.974  -7.031  0.00  0.00    +0.000 A 
ATOM     13  C   UNL     1      -6.012 -33.866  -7.494  0.00  0.00    +0.000 A 
ATOM     14  C   UNL     1      -5.709 -33.871  -8.851  0.00  0.00    +0.000 A 
ATOM     15  C   UNL     1      -3.515 -32.982  -8.397  0.00  0.00    +0.000 A 
ATOM     16  C   UNL     1      -4.468 -33.430  -9.305  0.00  0.00    +0.000 A 
BRANCH  14  17
ATOM     17  O   UNL     1      -6.609 -34.309  -9.786  0.00  0.00    +0.000 OA
ATOM     18  H   UNL     1      -6.265 -35.128 -10.181  0.00  0.00    +0.000 HD
ENDBRANCH  14  17
BRANCH  15  19
ATOM     19  O   UNL     1      -2.300 -32.554  -8.853  0.00  0.00    +0.000 OA
ATOM     20  H   UNL     1      -2.362 -32.346  -9.797  0.00  0.00    +0.000 HD
ENDBRANCH  15  19
BRANCH  16  21
ATOM     21  O   UNL     1      -4.205 -33.450 -10.647  0.00  0.00    +0.000 OA
ATOM     22  H   UNL     1      -4.776 -32.753 -11.021  0.00  0.00    +0.000 HD
ENDBRANCH  16  21
ENDBRANCH   3  11
BRANCH   7  23
ATOM     23  O   UNL     1      -6.420 -34.695  -0.356  0.00  0.00    +0.000 OA
ATOM     24  H   UNL     1      -5.797 -35.295  -0.799  0.00  0.00    +0.000 HD
ENDBRANCH   7  23
BRANCH  10  25
ATOM     25  O   UNL     1      -9.897 -31.707  -1.592  0.00  0.00    +0.000 OA
ATOM     26  H   UNL     1      -9.924 -30.883  -2.108  0.00  0.00    +0.000 HD
ENDBRANCH  10  25
BRANCH   2  27
ATOM     27  O   UNL     1      -6.046 -35.764  -4.989  0.00  0.00    +0.000 OA
BRANCH  27  29
ATOM     28  O   UNL     1      -5.550 -37.936  -4.436  0.00  0.00    +0.000 OA
ATOM     29  C   UNL     1      -5.583 -37.011  -5.230  0.00  0.00    +0.000 C 
BRANCH  29  30
ATOM     30  C   UNL     1      -5.069 -37.095  -6.620  0.00  0.00    +0.000 A 
ATOM     31  C   UNL     1      -5.959 -37.502  -7.627  0.00  0.00    +0.000 A 
ATOM     32  C   UNL     1      -3.738 -36.773  -6.938  0.00  0.00    +0.000 A 
ATOM     33  C   UNL     1      -3.300 -36.872  -8.257  0.00  0.00    +0.000 A 
ATOM     34  C   UNL     1      -5.502 -37.598  -8.936  0.00  0.00    +0.000 A 
ATOM     35  C   UNL     1      -4.179 -37.290  -9.251  0.00  0.00    +0.000 A 
BRANCH  33  36
ATOM     36  O   UNL     1      -2.009 -36.565  -8.583  0.00  0.00    +0.000 OA
ATOM     37  H   UNL     1      -1.417 -37.259  -8.258  0.00  0.00    +0.000 HD
ENDBRANCH  33  36
BRANCH  34  38
ATOM     38  O   UNL     1      -6.324 -37.995  -9.956  0.00  0.00    +0.000 OA
ATOM     39  H   UNL     1      -6.287 -38.966 -10.026  0.00  0.00    +0.000 HD
ENDBRANCH  34  38
BRANCH  35  40
ATOM     40  O   UNL     1      -3.765 -37.396 -10.551  0.00  0.00    +0.000 OA
ATOM     41  H   UNL     1      -4.441 -36.921 -11.072  0.00  0.00    +0.000 HD
ENDBRANCH  35  40
ENDBRANCH  29  30
ENDBRANCH  27  29
ENDBRANCH   2  27
TORSDOF 12
ENDMDL
MODEL 4
REMARK VINA RESULT:      -6.5      4.941      7.153
REMARK  Name = 
REMARK  12 active torsions:
REMARK  status: ('A' for Active; 'I' for Inactive)
REMARK    1  A    between atoms: O_2  and  C_12
REMARK    2  A    between atoms: O_2  and  C_24
REMARK    3  A    between atoms: O_3  and  C_18
REMARK    4  A    between atoms: O_4  and  C_23
REMARK    5  A    between atoms: O_5  and  C_25
REMARK    6  A    between atoms: O_6  and  C_26
REMARK    7  A    between atoms: O_8  and  C_27
REMARK    8  A    between atoms: O_9  and  C_31
REMARK    9  A    between atoms: O_10  and  C_32
REMARK   10  A    between atoms: O_11  and  C_33
REMARK   11  A    between atoms: C_13  and  C_16
REMARK   12  A    between atoms: C_24  and  C_28
REMARK                            x       y       z     vdW  Elec       q    Type
REMARK                         _______ _______ _______ _____ _____    ______ ____
ROOT
ATOM      1  O   UNL     1      -3.246 -36.397  -1.833  0.00  0.00    +0.000 OA
ATOM      2  C   UNL     1      -2.052 -37.131  -3.868  0.00  0.00    +0.000 C 
ATOM      3  C   UNL     1      -2.589 -35.955  -3.033  0.00  0.00    +0.000 C 
ATOM      4  C   UNL     1      -1.004 -37.872  -3.037  0.00  0.00    +0.000 C 
ATOM      5  C   UNL     1      -1.461 -38.050  -1.611  0.00  0.00    +0.000 A 
ATOM      6  C   UNL     1      -2.534 -37.310  -1.100  0.00  0.00    +0.000 A 
ATOM      7  C   UNL     1      -0.803 -38.947  -0.759  0.00  0.00    +0.000 A 
ATOM      8  C   UNL     1      -2.968 -37.494   0.215  0.00  0.00    +0.000 A 
ATOM      9  C   UNL     1      -1.220 -39.130   0.558  0.00  0.00    +0.000 A 
ATOM     10  C   UNL     1      -2.304 -38.403   1.032  0.00  0.00    +0.000 A 
ENDROOT
BRANCH   3  11
ATOM     11  C   UNL     1      -3.555 -35.093  -3.835  0.00  0.00    +0.000 A 
ATOM     12  C   UNL     1      -3.062 -34.239  -4.840  0.00  0.00    +0.000 A 
ATOM     13  C   UNL     1      -4.944 -35.159  -3.616  0.00  0.00    +0.000 A 
ATOM     14  C   UNL     1      -5.805 -34.383  -4.385  0.00  0.00    +0.000 A 
ATOM     15  C   UNL     1      -3.938 -33.463  -5.602  0.00  0.00    +0.000 A 
ATOM     16  C   UNL     1      -5.308 -33.536  -5.373  0.00  0.00    +0.000 A 
BRANCH  14  17
ATOM     17  O   UNL     1      -7.162 -34.423  -4.206  0.00  0.00    +0.000 OA
ATOM     18  H   UNL     1      -7.402 -35.307  -3.880  0.00  0.00    +0.000 HD
ENDBRANCH  14  17
BRANCH  15  19
ATOM     19  O   UNL     1      -3.462 -32.631  -6.575  0.00  0.00    +0.000 OA
ATOM     20  H   UNL     1      -3.591 -33.039  -7.444  0.00  0.00    +0.000 HD
ENDBRANCH  15  19
BRANCH  16  21
ATOM     21  O   UNL     1      -6.184 -32.788  -6.110  0.00  0.00    +0.000 OA
ATOM     22  H   UNL     1      -6.595 -32.182  -5.465  0.00  0.00    +0.000 HD
ENDBRANCH  16  21
ENDBRANCH   3  11
BRANCH   7  23
ATOM     23  O   UNL     1       0.264 -39.647  -1.246  0.00  0.00    +0.000 OA
ATOM     24  H   UNL     1       0.994 -39.029  -1.415  0.00  0.00    +0.000 HD
ENDBRANCH   7  23
BRANCH  10  25
ATOM     25  O   UNL     1      -2.689 -38.609   2.324  0.00  0.00    +0.000 OA
ATOM     26  H   UNL     1      -2.570 -37.783   2.823  0.00  0.00    +0.000 HD
ENDBRANCH  10  25
BRANCH   2  27
ATOM     27  O   UNL     1      -3.135 -38.042  -4.180  0.00  0.00    +0.000 OA
BRANCH  27  29
ATOM     28  O   UNL     1      -2.597 -39.624  -5.754  0.00  0.00    +0.000 OA
ATOM     29  C   UNL     1      -3.131 -38.579  -5.420  0.00  0.00    +0.000 C 
BRANCH  29  30
ATOM     30  C   UNL     1      -3.851 -37.682  -6.359  0.00  0.00    +0.000 A 
ATOM     31  C   UNL     1      -5.252 -37.632  -6.276  0.00  0.00    +0.000 A 
ATOM     32  C   UNL     1      -3.168 -36.894  -7.301  0.00  0.00    +0.000 A 
ATOM     33  C   UNL     1      -3.888 -36.071  -8.165  0.00  0.00    +0.000 A 
ATOM     34  C   UNL     1      -5.953 -36.807  -7.147  0.00  0.00    +0.000 A 
ATOM     35  C   UNL     1      -5.277 -36.033  -8.091  0.00  0.00    +0.000 A 
BRANCH  33  36
ATOM     36  O   UNL     1      -3.240 -35.300  -9.087  0.00  0.00    +0.000 OA
ATOM     37  H   UNL     1      -3.069 -34.422  -8.716  0.00  0.00    +0.000 HD
ENDBRANCH  33  36
BRANCH  34  38
ATOM     38  O   UNL     1      -7.318 -36.723  -7.115  0.00  0.00    +0.000 OA
ATOM     39  H   UNL     1      -7.660 -37.424  -6.531  0.00  0.00    +0.000 HD
ENDBRANCH  34  38
BRANCH  35  40
ATOM     40  O   UNL     1      -6.001 -35.233  -8.933  0.00  0.00    +0.000 OA
ATOM     41  H   UNL     1      -5.354 -34.903  -9.585  0.00  0.00    +0.000 HD
ENDBRANCH  35  40
ENDBRANCH  29  30
ENDBRANCH  27  29
ENDBRANCH   2  27
TORSDOF 12
ENDMDL
MODEL 5
REMARK VINA RESULT:      -6.4      5.100      7.589
REMARK  Name = 
REMARK  12 active torsions:
REMARK  status: ('A' for Active; 'I' for Inactive)
REMARK    1  A    between atoms: O_2  and  C_12
REMARK    2  A    between atoms: O_2  and  C_24
REMARK    3  A    between atoms: O_3  and  C_18
REMARK    4  A    between atoms: O_4  and  C_23
REMARK    5  A    between atoms: O_5  and  C_25
REMARK    6  A    between atoms: O_6  and  C_26
REMARK    7  A    between atoms: O_8  and  C_27
REMARK    8  A    between atoms: O_9  and  C_31
REMARK    9  A    between atoms: O_10  and  C_32
REMARK   10  A    between atoms: O_11  and  C_33
REMARK   11  A    between atoms: C_13  and  C_16
REMARK   12  A    between atoms: C_24  and  C_28
REMARK                            x       y       z     vdW  Elec       q    Type
REMARK                         _______ _______ _______ _____ _____    ______ ____
ROOT
ATOM      1  O   UNL     1      -3.296 -36.660  -1.525  0.00  0.00    +0.000 OA
ATOM      2  C   UNL     1      -2.085 -37.364  -3.561  0.00  0.00    +0.000 C 
ATOM      3  C   UNL     1      -2.621 -36.201  -2.709  0.00  0.00    +0.000 C 
ATOM      4  C   UNL     1      -1.055 -38.133  -2.733  0.00  0.00    +0.000 C 
ATOM      5  C   UNL     1      -1.530 -38.336  -1.317  0.00  0.00    +0.000 A 
ATOM      6  C   UNL     1      -2.602 -37.595  -0.803  0.00  0.00    +0.000 A 
ATOM      7  C   UNL     1      -0.892 -39.256  -0.476  0.00  0.00    +0.000 A 
ATOM      8  C   UNL     1      -3.053 -37.802   0.502  0.00  0.00    +0.000 A 
ATOM      9  C   UNL     1      -1.326 -39.462   0.832  0.00  0.00    +0.000 A 
ATOM     10  C   UNL     1      -2.408 -38.734   1.309  0.00  0.00    +0.000 A 
ENDROOT
BRANCH   3  11
ATOM     11  C   UNL     1      -3.569 -35.313  -3.504  0.00  0.00    +0.000 A 
ATOM     12  C   UNL     1      -4.951 -35.344  -3.232  0.00  0.00    +0.000 A 
ATOM     13  C   UNL     1      -3.086 -34.429  -4.488  0.00  0.00    +0.000 A 
ATOM     14  C   UNL     1      -3.972 -33.608  -5.177  0.00  0.00    +0.000 A 
ATOM     15  C   UNL     1      -5.828 -34.516  -3.935  0.00  0.00    +0.000 A 
ATOM     16  C   UNL     1      -5.338 -33.650  -4.906  0.00  0.00    +0.000 A 
BRANCH  14  17
ATOM     17  O   UNL     1      -3.541 -32.732  -6.137  0.00  0.00    +0.000 OA
ATOM     18  H   UNL     1      -2.569 -32.704  -6.112  0.00  0.00    +0.000 HD
ENDBRANCH  14  17
BRANCH  15  19
ATOM     19  O   UNL     1      -7.169 -34.547  -3.676  0.00  0.00    +0.000 OA
ATOM     20  H   UNL     1      -7.412 -33.786  -3.128  0.00  0.00    +0.000 HD
ENDBRANCH  15  19
BRANCH  16  21
ATOM     21  O   UNL     1      -6.180 -32.828  -5.603  0.00  0.00    +0.000 OA
ATOM     22  H   UNL     1      -6.113 -33.132  -6.528  0.00  0.00    +0.000 HD
ENDBRANCH  16  21
ENDBRANCH   3  11
BRANCH   7  23
ATOM     23  O   UNL     1       0.174 -39.958  -0.964  0.00  0.00    +0.000 OA
ATOM     24  H   UNL     1       0.912 -39.343  -1.113  0.00  0.00    +0.000 HD
ENDBRANCH   7  23
BRANCH  10  25
ATOM     25  O   UNL     1      -2.810 -38.962   2.592  0.00  0.00    +0.000 OA
ATOM     26  H   UNL     1      -2.915 -38.108   3.044  0.00  0.00    +0.000 HD
ENDBRANCH  10  25
BRANCH   2  27
ATOM     27  O   UNL     1      -3.174 -38.258  -3.905  0.00  0.00    +0.000 OA
BRANCH  27  29
ATOM     28  O   UNL     1      -2.792 -39.915  -5.447  0.00  0.00    +0.000 OA
ATOM     29  C   UNL     1      -3.149 -38.787  -5.148  0.00  0.00    +0.000 C 
BRANCH  29  30
ATOM     30  C   UNL     1      -3.591 -37.770  -6.135  0.00  0.00    +0.000 A 
ATOM     31  C   UNL     1      -2.608 -37.135  -6.910  0.00  0.00    +0.000 A 
ATOM     32  C   UNL     1      -4.948 -37.449  -6.309  0.00  0.00    +0.000 A 
ATOM     33  C   UNL     1      -5.315 -36.484  -7.246  0.00  0.00    +0.000 A 
ATOM     34  C   UNL     1      -2.992 -36.173  -7.837  0.00  0.00    +0.000 A 
ATOM     35  C   UNL     1      -4.337 -35.845  -8.002  0.00  0.00    +0.000 A 
BRANCH  33  36
ATOM     36  O   UNL     1      -6.629 -36.158  -7.426  0.00  0.00    +0.000 OA
ATOM     37  H   UNL     1      -7.004 -36.700  -8.136  0.00  0.00    +0.000 HD
ENDBRANCH  33  36
BRANCH  34  38
ATOM     38  O   UNL     1      -2.076 -35.518  -8.614  0.00  0.00    +0.000 OA
ATOM     39  H   UNL     1      -1.183 -35.725  -8.285  0.00  0.00    +0.000 HD
ENDBRANCH  34  38
BRANCH  35  40
ATOM     40  O   UNL     1      -4.679 -34.893  -8.924  0.00  0.00    +0.000 OA
ATOM     41  H   UNL     1      -5.629 -34.724  -8.774  0.00  0.00    +0.000 HD
ENDBRANCH  35  40
ENDBRANCH  29  30
ENDBRANCH  27  29
ENDBRANCH   2  27
TORSDOF 12
ENDMDL
MODEL 6
REMARK VINA RESULT:      -6.4     19.006     21.216
REMARK  Name = 
REMARK  12 active torsions:
REMARK  status: ('A' for Active; 'I' for Inactive)
REMARK    1  A    between atoms: O_2  and  C_12
REMARK    2  A    between atoms: O_2  and  C_24
REMARK    3  A    between atoms: O_3  and  C_18
REMARK    4  A    between atoms: O_4  and  C_23
REMARK    5  A    between atoms: O_5  and  C_25
REMARK    6  A    between atoms: O_6  and  C_26
REMARK    7  A    between atoms: O_8  and  C_27
REMARK    8  A    between atoms: O_9  and  C_31
REMARK    9  A    between atoms: O_10  and  C_32
REMARK   10  A    between atoms: O_11  and  C_33
REMARK   11  A    between atoms: C_13  and  C_16
REMARK   12  A    between atoms: C_24  and  C_28
REMARK                            x       y       z     vdW  Elec       q    Type
REMARK                         _______ _______ _______ _____ _____    ______ ____
ROOT
ATOM      1  O   UNL     1      -1.054 -19.756 -16.480  0.00  0.00    +0.000 OA
ATOM      2  C   UNL     1      -1.778 -17.450 -15.966  0.00  0.00    +0.000 C 
ATOM      3  C   UNL     1      -0.632 -18.476 -15.979  0.00  0.00    +0.000 C 
ATOM      4  C   UNL     1      -2.245 -17.230 -17.405  0.00  0.00    +0.000 C 
ATOM      5  C   UNL     1      -2.353 -18.535 -18.152  0.00  0.00    +0.000 A 
ATOM      6  C   UNL     1      -1.756 -19.701 -17.656  0.00  0.00    +0.000 A 
ATOM      7  C   UNL     1      -3.034 -18.603 -19.373  0.00  0.00    +0.000 A 
ATOM      8  C   UNL     1      -1.877 -20.913 -18.340  0.00  0.00    +0.000 A 
ATOM      9  C   UNL     1      -3.151 -19.804 -20.070  0.00  0.00    +0.000 A 
ATOM     10  C   UNL     1      -2.574 -20.952 -19.543  0.00  0.00    +0.000 A 
ENDROOT
BRANCH   3  11
ATOM     11  C   UNL     1      -0.031 -18.663 -14.592  0.00  0.00    +0.000 A 
ATOM     12  C   UNL     1       0.111 -17.554 -13.736  0.00  0.00    +0.000 A 
ATOM     13  C   UNL     1       0.356 -19.936 -14.132  0.00  0.00    +0.000 A 
ATOM     14  C   UNL     1       0.874 -20.082 -12.849  0.00  0.00    +0.000 A 
ATOM     15  C   UNL     1       0.636 -17.715 -12.452  0.00  0.00    +0.000 A 
ATOM     16  C   UNL     1       1.016 -18.978 -12.011  0.00  0.00    +0.000 A 
BRANCH  14  17
ATOM     17  O   UNL     1       1.256 -21.303 -12.363  0.00  0.00    +0.000 OA
ATOM     18  H   UNL     1       0.876 -21.992 -12.933  0.00  0.00    +0.000 HD
ENDBRANCH  14  17
BRANCH  15  19
ATOM     19  O   UNL     1       0.778 -16.641 -11.620  0.00  0.00    +0.000 OA
ATOM     20  H   UNL     1       0.000 -16.068 -11.693  0.00  0.00    +0.000 HD
ENDBRANCH  15  19
BRANCH  16  21
ATOM     21  O   UNL     1       1.528 -19.158 -10.755  0.00  0.00    +0.000 OA
ATOM     22  H   UNL     1       2.136 -19.918 -10.843  0.00  0.00    +0.000 HD
ENDBRANCH  16  21
ENDBRANCH   3  11
BRANCH   7  23
ATOM     23  O   UNL     1      -3.591 -17.460 -19.876  0.00  0.00    +0.000 OA
ATOM     24  H   UNL     1      -3.424 -17.425 -20.832  0.00  0.00    +0.000 HD
ENDBRANCH   7  23
BRANCH  10  25
ATOM     25  O   UNL     1      -2.710 -22.111 -20.248  0.00  0.00    +0.000 OA
ATOM     26  H   UNL     1      -3.655 -22.271 -20.409  0.00  0.00    +0.000 HD
ENDBRANCH  10  25
BRANCH   2  27
ATOM     27  O   UNL     1      -2.886 -17.966 -15.186  0.00  0.00    +0.000 OA
BRANCH  27  29
ATOM     28  O   UNL     1      -3.193 -16.657 -13.326  0.00  0.00    +0.000 OA
ATOM     29  C   UNL     1      -3.548 -17.075 -14.416  0.00  0.00    +0.000 C 
BRANCH  29  30
ATOM     30  C   UNL     1      -4.821 -16.689 -15.074  0.00  0.00    +0.000 A 
ATOM     31  C   UNL     1      -5.238 -15.353 -14.968  0.00  0.00    +0.000 A 
ATOM     32  C   UNL     1      -5.592 -17.617 -15.795  0.00  0.00    +0.000 A 
ATOM     33  C   UNL     1      -6.783 -17.209 -16.392  0.00  0.00    +0.000 A 
ATOM     34  C   UNL     1      -6.430 -14.965 -15.567  0.00  0.00    +0.000 A 
ATOM     35  C   UNL     1      -7.203 -15.887 -16.273  0.00  0.00    +0.000 A 
BRANCH  33  36
ATOM     36  O   UNL     1      -7.546 -18.098 -17.094  0.00  0.00    +0.000 OA
ATOM     37  H   UNL     1      -7.432 -17.947 -18.044  0.00  0.00    +0.000 HD
ENDBRANCH  33  36
BRANCH  34  38
ATOM     38  O   UNL     1      -6.888 -13.678 -15.490  0.00  0.00    +0.000 OA
ATOM     39  H   UNL     1      -7.627 -13.648 -14.856  0.00  0.00    +0.000 HD
ENDBRANCH  34  38
BRANCH  35  40
ATOM     40  O   UNL     1      -8.371 -15.470 -16.850  0.00  0.00    +0.000 OA
ATOM     41  H   UNL     1      -9.059 -15.631 -16.175  0.00  0.00    +0.000 HD
ENDBRANCH  35  40
ENDBRANCH  29  30
ENDBRANCH  27  29
ENDBRANCH   2  27
TORSDOF 12
ENDMDL
MODEL 7
REMARK VINA RESULT:      -6.3      5.298      8.848
REMARK  Name = 
REMARK  12 active torsions:
REMARK  status: ('A' for Active; 'I' for Inactive)
REMARK    1  A    between atoms: O_2  and  C_12
REMARK    2  A    between atoms: O_2  and  C_24
REMARK    3  A    between atoms: O_3  and  C_18
REMARK    4  A    between atoms: O_4  and  C_23
REMARK    5  A    between atoms: O_5  and  C_25
REMARK    6  A    between atoms: O_6  and  C_26
REMARK    7  A    between atoms: O_8  and  C_27
REMARK    8  A    between atoms: O_9  and  C_31
REMARK    9  A    between atoms: O_10  and  C_32
REMARK   10  A    between atoms: O_11  and  C_33
REMARK   11  A    between atoms: C_13  and  C_16
REMARK   12  A    between atoms: C_24  and  C_28
REMARK                            x       y       z     vdW  Elec       q    Type
REMARK                         _______ _______ _______ _____ _____    ______ ____
ROOT
ATOM      1  O   UNL     1      -6.761 -35.226  -0.045  0.00  0.00    +0.000 OA
ATOM      2  C   UNL     1      -6.198 -36.623  -2.004  0.00  0.00    +0.000 C 
ATOM      3  C   UNL     1      -6.622 -36.574  -0.526  0.00  0.00    +0.000 C 
ATOM      4  C   UNL     1      -7.293 -35.965  -2.842  0.00  0.00    +0.000 C 
ATOM      5  C   UNL     1      -7.789 -34.695  -2.197  0.00  0.00    +0.000 A 
ATOM      6  C   UNL     1      -7.503 -34.409  -0.856  0.00  0.00    +0.000 A 
ATOM      7  C   UNL     1      -8.569 -33.786  -2.923  0.00  0.00    +0.000 A 
ATOM      8  C   UNL     1      -7.945 -33.221  -0.270  0.00  0.00    +0.000 A 
ATOM      9  C   UNL     1      -9.025 -32.603  -2.344  0.00  0.00    +0.000 A 
ATOM     10  C   UNL     1      -8.704 -32.329  -1.020  0.00  0.00    +0.000 A 
ENDROOT
BRANCH   3  11
ATOM     11  C   UNL     1      -5.636 -37.316   0.366  0.00  0.00    +0.000 A 
ATOM     12  C   UNL     1      -4.965 -36.625   1.394  0.00  0.00    +0.000 A 
ATOM     13  C   UNL     1      -5.405 -38.696   0.207  0.00  0.00    +0.000 A 
ATOM     14  C   UNL     1      -4.521 -39.354   1.056  0.00  0.00    +0.000 A 
ATOM     15  C   UNL     1      -4.078 -37.298   2.237  0.00  0.00    +0.000 A 
ATOM     16  C   UNL     1      -3.858 -38.661   2.066  0.00  0.00    +0.000 A 
BRANCH  14  17
ATOM     17  O   UNL     1      -4.274 -40.695   0.936  0.00  0.00    +0.000 OA
ATOM     18  H   UNL     1      -5.126 -41.158   0.861  0.00  0.00    +0.000 HD
ENDBRANCH  14  17
BRANCH  15  19
ATOM     19  O   UNL     1      -3.424 -36.631   3.232  0.00  0.00    +0.000 OA
ATOM     20  H   UNL     1      -2.651 -37.142   3.515  0.00  0.00    +0.000 HD
ENDBRANCH  15  19
BRANCH  16  21
ATOM     21  O   UNL     1      -2.996 -39.340   2.883  0.00  0.00    +0.000 OA
ATOM     22  H   UNL     1      -3.457 -40.175   3.090  0.00  0.00    +0.000 HD
ENDBRANCH  16  21
ENDBRANCH   3  11
BRANCH   7  23
ATOM     23  O   UNL     1      -8.876 -34.078  -4.221  0.00  0.00    +0.000 OA
ATOM     24  H   UNL     1      -9.713 -34.572  -4.242  0.00  0.00    +0.000 HD
ENDBRANCH   7  23
BRANCH  10  25
ATOM     25  O   UNL     1      -9.164 -31.162  -0.486  0.00  0.00    +0.000 OA
ATOM     26  H   UNL     1      -8.568 -30.440  -0.750  0.00  0.00    +0.000 HD
ENDBRANCH  10  25
BRANCH   2  27
ATOM     27  O   UNL     1      -4.963 -35.885  -2.181  0.00  0.00    +0.000 OA
BRANCH  27  29
ATOM     28  O   UNL     1      -3.985 -36.416  -4.189  0.00  0.00    +0.000 OA
ATOM     29  C   UNL     1      -4.027 -36.457  -2.970  0.00  0.00    +0.000 C 
BRANCH  29  30
ATOM     30  C   UNL     1      -3.049 -37.197  -2.134  0.00  0.00    +0.000 A 
ATOM     31  C   UNL     1      -2.842 -38.558  -2.411  0.00  0.00    +0.000 A 
ATOM     32  C   UNL     1      -2.336 -36.568  -1.099  0.00  0.00    +0.000 A 
ATOM     33  C   UNL     1      -1.431 -37.305  -0.337  0.00  0.00    +0.000 A 
ATOM     34  C   UNL     1      -1.938 -39.277  -1.639  0.00  0.00    +0.000 A 
ATOM     35  C   UNL     1      -1.239 -38.658  -0.603  0.00  0.00    +0.000 A 
BRANCH  33  36
ATOM     36  O   UNL     1      -0.731 -36.711   0.675  0.00  0.00    +0.000 OA
ATOM     37  H   UNL     1      -0.181 -37.371   1.122  0.00  0.00    +0.000 HD
ENDBRANCH  33  36
BRANCH  34  38
ATOM     38  O   UNL     1      -1.702 -40.607  -1.861  0.00  0.00    +0.000 OA
ATOM     39  H   UNL     1      -2.406 -40.956  -2.436  0.00  0.00    +0.000 HD
ENDBRANCH  34  38
BRANCH  35  40
ATOM     40  O   UNL     1      -0.357 -39.398   0.137  0.00  0.00    +0.000 OA
ATOM     41  H   UNL     1      -0.896 -40.106   0.538  0.00  0.00    +0.000 HD
ENDBRANCH  35  40
ENDBRANCH  29  30
ENDBRANCH  27  29
ENDBRANCH   2  27
TORSDOF 12
ENDMDL
MODEL 8
REMARK VINA RESULT:      -6.3      5.271      8.898
REMARK  Name = 
REMARK  12 active torsions:
REMARK  status: ('A' for Active; 'I' for Inactive)
REMARK    1  A    between atoms: O_2  and  C_12
REMARK    2  A    between atoms: O_2  and  C_24
REMARK    3  A    between atoms: O_3  and  C_18
REMARK    4  A    between atoms: O_4  and  C_23
REMARK    5  A    between atoms: O_5  and  C_25
REMARK    6  A    between atoms: O_6  and  C_26
REMARK    7  A    between atoms: O_8  and  C_27
REMARK    8  A    between atoms: O_9  and  C_31
REMARK    9  A    between atoms: O_10  and  C_32
REMARK   10  A    between atoms: O_11  and  C_33
REMARK   11  A    between atoms: C_13  and  C_16
REMARK   12  A    between atoms: C_24  and  C_28
REMARK                            x       y       z     vdW  Elec       q    Type
REMARK                         _______ _______ _______ _____ _____    ______ ____
ROOT
ATOM      1  O   UNL     1      -6.840 -35.203  -0.009  0.00  0.00    +0.000 OA
ATOM      2  C   UNL     1      -6.239 -36.613  -1.947  0.00  0.00    +0.000 C 
ATOM      3  C   UNL     1      -6.689 -36.554  -0.477  0.00  0.00    +0.000 C 
ATOM      4  C   UNL     1      -7.322 -35.965  -2.809  0.00  0.00    +0.000 C 
ATOM      5  C   UNL     1      -7.832 -34.691  -2.183  0.00  0.00    +0.000 A 
ATOM      6  C   UNL     1      -7.570 -34.394  -0.839  0.00  0.00    +0.000 A 
ATOM      7  C   UNL     1      -8.601 -33.789  -2.928  0.00  0.00    +0.000 A 
ATOM      8  C   UNL     1      -8.025 -33.203  -0.269  0.00  0.00    +0.000 A 
ATOM      9  C   UNL     1      -9.071 -32.604  -2.366  0.00  0.00    +0.000 A 
ATOM     10  C   UNL     1      -8.773 -32.319  -1.039  0.00  0.00    +0.000 A 
ENDROOT
BRANCH   3  11
ATOM     11  C   UNL     1      -5.716 -37.287   0.437  0.00  0.00    +0.000 A 
ATOM     12  C   UNL     1      -5.498 -38.668   0.263  0.00  0.00    +0.000 A 
ATOM     13  C   UNL     1      -5.000 -36.603   1.437  0.00  0.00    +0.000 A 
ATOM     14  C   UNL     1      -4.095 -37.293   2.237  0.00  0.00    +0.000 A 
ATOM     15  C   UNL     1      -4.589 -39.348   1.077  0.00  0.00    +0.000 A 
ATOM     16  C   UNL     1      -3.889 -38.659   2.062  0.00  0.00    +0.000 A 
BRANCH  14  17
ATOM     17  O   UNL     1      -3.375 -36.662   3.216  0.00  0.00    +0.000 OA
ATOM     18  H   UNL     1      -2.547 -37.153   3.353  0.00  0.00    +0.000 HD
ENDBRANCH  14  17
BRANCH  15  19
ATOM     19  O   UNL     1      -4.377 -40.686   0.912  0.00  0.00    +0.000 OA
ATOM     20  H   UNL     1      -3.972 -41.053   1.712  0.00  0.00    +0.000 HD
ENDBRANCH  15  19
BRANCH  16  21
ATOM     21  O   UNL     1      -2.991 -39.305   2.866  0.00  0.00    +0.000 OA
ATOM     22  H   UNL     1      -2.614 -40.007   2.303  0.00  0.00    +0.000 HD
ENDBRANCH  16  21
ENDBRANCH   3  11
BRANCH   7  23
ATOM     23  O   UNL     1      -8.886 -34.092  -4.230  0.00  0.00    +0.000 OA
ATOM     24  H   UNL     1      -8.938 -35.058  -4.323  0.00  0.00    +0.000 HD
ENDBRANCH   7  23
BRANCH  10  25
ATOM     25  O   UNL     1      -9.245 -31.149  -0.521  0.00  0.00    +0.000 OA
ATOM     26  H   UNL     1      -9.546 -30.581  -1.251  0.00  0.00    +0.000 HD
ENDBRANCH  10  25
BRANCH   2  27
ATOM     27  O   UNL     1      -5.004 -35.873  -2.109  0.00  0.00    +0.000 OA
BRANCH  27  29
ATOM     28  O   UNL     1      -4.028 -36.315  -4.140  0.00  0.00    +0.000 OA
ATOM     29  C   UNL     1      -4.076 -36.421  -2.925  0.00  0.00    +0.000 C 
BRANCH  29  30
ATOM     30  C   UNL     1      -3.116 -37.224  -2.127  0.00  0.00    +0.000 A 
ATOM     31  C   UNL     1      -2.394 -36.572  -1.114  0.00  0.00    +0.000 A 
ATOM     32  C   UNL     1      -2.929 -38.598  -2.358  0.00  0.00    +0.000 A 
ATOM     33  C   UNL     1      -2.012 -39.309  -1.586  0.00  0.00    +0.000 A 
ATOM     34  C   UNL     1      -1.482 -37.297  -0.357  0.00  0.00    +0.000 A 
ATOM     35  C   UNL     1      -1.287 -38.658  -0.593  0.00  0.00    +0.000 A 
BRANCH  33  36
ATOM     36  O   UNL     1      -1.817 -40.644  -1.798  0.00  0.00    +0.000 OA
ATOM     37  H   UNL     1      -2.552 -41.003  -2.318  0.00  0.00    +0.000 HD
ENDBRANCH  33  36
BRANCH  34  38
ATOM     38  O   UNL     1      -0.748 -36.711   0.638  0.00  0.00    +0.000 OA
ATOM     39  H   UNL     1      -0.367 -35.882   0.297  0.00  0.00    +0.000 HD
ENDBRANCH  34  38
BRANCH  35  40
ATOM     40  O   UNL     1      -0.381 -39.340   0.172  0.00  0.00    +0.000 OA
ATOM     41  H   UNL     1      -0.834 -40.167   0.424  0.00  0.00    +0.000 HD
ENDBRANCH  35  40
ENDBRANCH  29  30
ENDBRANCH  27  29
ENDBRANCH   2  27
TORSDOF 12
ENDMDL
MODEL 9
REMARK VINA RESULT:      -6.3      3.968      7.562
REMARK  Name = 
REMARK  12 active torsions:
REMARK  status: ('A' for Active; 'I' for Inactive)
REMARK    1  A    between atoms: O_2  and  C_12
REMARK    2  A    between atoms: O_2  and  C_24
REMARK    3  A    between atoms: O_3  and  C_18
REMARK    4  A    between atoms: O_4  and  C_23
REMARK    5  A    between atoms: O_5  and  C_25
REMARK    6  A    between atoms: O_6  and  C_26
REMARK    7  A    between atoms: O_8  and  C_27
REMARK    8  A    between atoms: O_9  and  C_31
REMARK    9  A    between atoms: O_10  and  C_32
REMARK   10  A    between atoms: O_11  and  C_33
REMARK   11  A    between atoms: C_13  and  C_16
REMARK   12  A    between atoms: C_24  and  C_28
REMARK                            x       y       z     vdW  Elec       q    Type
REMARK                         _______ _______ _______ _____ _____    ______ ____
ROOT
ATOM      1  O   UNL     1      -6.683 -35.603  -0.304  0.00  0.00    +0.000 OA
ATOM      2  C   UNL     1      -6.612 -37.490  -1.898  0.00  0.00    +0.000 C 
ATOM      3  C   UNL     1      -6.730 -37.034  -0.433  0.00  0.00    +0.000 C 
ATOM      4  C   UNL     1      -7.808 -36.936  -2.672  0.00  0.00    +0.000 C 
ATOM      5  C   UNL     1      -8.082 -35.500  -2.304  0.00  0.00    +0.000 A 
ATOM      6  C   UNL     1      -7.517 -34.929  -1.157  0.00  0.00    +0.000 A 
ATOM      7  C   UNL     1      -8.930 -34.712  -3.093  0.00  0.00    +0.000 A 
ATOM      8  C   UNL     1      -7.756 -33.592  -0.832  0.00  0.00    +0.000 A 
ATOM      9  C   UNL     1      -9.185 -33.381  -2.771  0.00  0.00    +0.000 A 
ATOM     10  C   UNL     1      -8.591 -32.830  -1.643  0.00  0.00    +0.000 A 
ENDROOT
BRANCH   3  11
ATOM     11  C   UNL     1      -5.636 -37.643   0.434  0.00  0.00    +0.000 A 
ATOM     12  C   UNL     1      -4.776 -36.803   1.168  0.00  0.00    +0.000 A 
ATOM     13  C   UNL     1      -5.487 -39.039   0.545  0.00  0.00    +0.000 A 
ATOM     14  C   UNL     1      -4.497 -39.567   1.368  0.00  0.00    +0.000 A 
ATOM     15  C   UNL     1      -3.785 -37.348   1.988  0.00  0.00    +0.000 A 
ATOM     16  C   UNL     1      -3.648 -38.729   2.087  0.00  0.00    +0.000 A 
BRANCH  14  17
ATOM     17  O   UNL     1      -4.325 -40.918   1.507  0.00  0.00    +0.000 OA
ATOM     18  H   UNL     1      -3.387 -41.088   1.702  0.00  0.00    +0.000 HD
ENDBRANCH  14  17
BRANCH  15  19
ATOM     19  O   UNL     1      -2.948 -36.537   2.699  0.00  0.00    +0.000 OA
ATOM     20  H   UNL     1      -3.156 -36.602   3.643  0.00  0.00    +0.000 HD
ENDBRANCH  15  19
BRANCH  16  21
ATOM     21  O   UNL     1      -2.687 -39.283   2.887  0.00  0.00    +0.000 OA
ATOM     22  H   UNL     1      -3.073 -39.268   3.783  0.00  0.00    +0.000 HD
ENDBRANCH  16  21
ENDBRANCH   3  11
BRANCH   7  23
ATOM     23  O   UNL     1      -9.508 -35.275  -4.196  0.00  0.00    +0.000 OA
ATOM     24  H   UNL     1      -9.188 -36.188  -4.286  0.00  0.00    +0.000 HD
ENDBRANCH   7  23
BRANCH  10  25
ATOM     25  O   UNL     1      -8.858 -31.524  -1.359  0.00  0.00    +0.000 OA
ATOM     26  H   UNL     1      -8.110 -31.151  -0.862  0.00  0.00    +0.000 HD
ENDBRANCH  10  25
BRANCH   2  27
ATOM     27  O   UNL     1      -5.392 -36.962  -2.476  0.00  0.00    +0.000 OA
BRANCH  27  29
ATOM     28  O   UNL     1      -5.251 -38.226  -4.387  0.00  0.00    +0.000 OA
ATOM     29  C   UNL     1      -5.221 -37.155  -3.802  0.00  0.00    +0.000 C 
BRANCH  29  30
ATOM     30  C   UNL     1      -4.945 -35.857  -4.468  0.00  0.00    +0.000 A 
ATOM     31  C   UNL     1      -3.796 -35.150  -4.081  0.00  0.00    +0.000 A 
ATOM     32  C   UNL     1      -5.792 -35.343  -5.465  0.00  0.00    +0.000 A 
ATOM     33  C   UNL     1      -5.495 -34.117  -6.058  0.00  0.00    +0.000 A 
ATOM     34  C   UNL     1      -3.518 -33.928  -4.681  0.00  0.00    +0.000 A 
ATOM     35  C   UNL     1      -4.364 -33.410  -5.662  0.00  0.00    +0.000 A 
BRANCH  33  36
ATOM     36  O   UNL     1      -6.308 -33.601  -7.027  0.00  0.00    +0.000 OA
ATOM     37  H   UNL     1      -6.992 -34.248  -7.257  0.00  0.00    +0.000 HD
ENDBRANCH  33  36
BRANCH  34  38
ATOM     38  O   UNL     1      -2.416 -33.193  -4.338  0.00  0.00    +0.000 OA
ATOM     39  H   UNL     1      -1.684 -33.431  -4.936  0.00  0.00    +0.000 HD
ENDBRANCH  34  38
BRANCH  35  40
ATOM     40  O   UNL     1      -4.058 -32.204  -6.231  0.00  0.00    +0.000 OA
ATOM     41  H   UNL     1      -4.596 -31.551  -5.745  0.00  0.00    +0.000 HD
ENDBRANCH  35  40
ENDBRANCH  29  30
ENDBRANCH  27  29
ENDBRANCH   2  27
TORSDOF 12
ENDMDL
