MODEL 1
REMARK VINA RESULT:      -6.0      0.000      0.000
REMARK  Name = Estradiol.pdbqt.pdb
REMARK  2 active torsions:
REMARK  status: ('A' for Active; 'I' for Inactive)
REMARK    1  A    between atoms: C_5  and  O_19
REMARK    2  A    between atoms: C_18  and  O_21
REMARK                            x       y       z     vdW  Elec       q    Type
REMARK                         _______ _______ _______ _____ _____    ______ ____
ROOT
ATOM      1  C   UNL     1       0.423 -35.065 -10.928  0.00  0.00    +0.000 C 
ATOM      2  C   UNL     1      -0.149 -33.608 -10.570  0.00  0.00    +0.000 C 
ATOM      3  C   UNL     1      -1.340 -33.437  -9.724  0.00  0.00    +0.000 A 
ATOM      4  C   UNL     1      -2.017 -34.511  -8.899  0.00  0.00    +0.000 A 
ATOM      5  C   UNL     1       1.945 -34.887 -10.741  0.00  0.00    +0.000 C 
ATOM      6  C   UNL     1      -0.190 -35.986  -9.970  0.00  0.00    +0.000 C 
ATOM      7  C   UNL     1       0.982 -32.747 -10.399  0.00  0.00    +0.000 C 
ATOM      8  C   UNL     1      -1.351 -35.755  -9.033  0.00  0.00    +0.000 C 
ATOM      9  C   UNL     1       2.268 -33.531 -10.471  0.00  0.00    +0.000 C 
ATOM     10  C   UNL     1      -1.972 -32.178  -9.554  0.00  0.00    +0.000 A 
ATOM     11  C   UNL     1       0.088 -35.383 -12.409  0.00  0.00    +0.000 C 
ATOM     12  C   UNL     1      -3.232 -34.284  -8.047  0.00  0.00    +0.000 A 
ATOM     13  C   UNL     1      -3.186 -31.951  -8.687  0.00  0.00    +0.000 A 
ATOM     14  C   UNL     1      -3.821 -32.987  -7.942  0.00  0.00    +0.000 A 
ATOM     15  C   UNL     1      -3.817 -35.335  -7.341  0.00  0.00    +0.000 A 
ATOM     16  C   UNL     1      -4.950 -32.758  -7.167  0.00  0.00    +0.000 A 
ATOM     17  C   UNL     1      -4.951 -35.112  -6.560  0.00  0.00    +0.000 A 
ATOM     18  C   UNL     1      -5.505 -33.833  -6.482  0.00  0.00    +0.000 A 
ENDROOT
BRANCH   5  19
ATOM     19  O   UNL     1       2.784 -35.928 -10.404  0.00  0.00    +0.000 OA
ATOM     20  H   UNL     1       3.524 -36.011 -11.032  0.00  0.00    +0.000 HD
ENDBRANCH   5  19
BRANCH  18  21
ATOM     21  O   UNL     1      -6.618 -33.607  -5.723  0.00  0.00    +0.000 OA
ATOM     22  H   UNL     1      -6.402 -33.804  -4.795  0.00  0.00    +0.000 HD
ENDBRANCH  18  21
TORSDOF 2
ENDMDL
MODEL 2
REMARK VINA RESULT:      -5.8     16.023     17.651
REMARK  Name = Estradiol.pdbqt.pdb
REMARK  2 active torsions:
REMARK  status: ('A' for Active; 'I' for Inactive)
REMARK    1  A    between atoms: C_5  and  O_19
REMARK    2  A    between atoms: C_18  and  O_21
REMARK                            x       y       z     vdW  Elec       q    Type
REMARK                         _______ _______ _______ _____ _____    ______ ____
ROOT
ATOM      1  C   UNL     1      -0.331 -18.963 -15.305  0.00  0.00    +0.000 C 
ATOM      2  C   UNL     1      -0.909 -17.611 -14.659  0.00  0.00    +0.000 C 
ATOM      3  C   UNL     1      -2.308 -17.200 -14.858  0.00  0.00    +0.000 A 
ATOM      4  C   UNL     1      -3.417 -18.049 -15.441  0.00  0.00    +0.000 A 
ATOM      5  C   UNL     1       0.485 -19.571 -14.145  0.00  0.00    +0.000 C 
ATOM      6  C   UNL     1      -1.499 -19.757 -15.691  0.00  0.00    +0.000 C 
ATOM      7  C   UNL     1      -0.296 -17.470 -13.372  0.00  0.00    +0.000 C 
ATOM      8  C   UNL     1      -2.947 -19.340 -15.789  0.00  0.00    +0.000 C 
ATOM      9  C   UNL     1       0.534 -18.683 -13.038  0.00  0.00    +0.000 C 
ATOM     10  C   UNL     1      -2.784 -15.924 -14.462  0.00  0.00    +0.000 A 
ATOM     11  C   UNL     1       0.596 -18.592 -16.491  0.00  0.00    +0.000 C 
ATOM     12  C   UNL     1      -4.833 -17.583 -15.621  0.00  0.00    +0.000 A 
ATOM     13  C   UNL     1      -4.211 -15.464 -14.633  0.00  0.00    +0.000 A 
ATOM     14  C   UNL     1      -5.231 -16.274 -15.212  0.00  0.00    +0.000 A 
ATOM     15  C   UNL     1      -5.792 -18.416 -16.197  0.00  0.00    +0.000 A 
ATOM     16  C   UNL     1      -6.533 -15.820 -15.378  0.00  0.00    +0.000 A 
ATOM     17  C   UNL     1      -7.102 -17.966 -16.367  0.00  0.00    +0.000 A 
ATOM     18  C   UNL     1      -7.458 -16.680 -15.959  0.00  0.00    +0.000 A 
ENDROOT
BRANCH   5  19
ATOM     19  O   UNL     1       0.708 -20.925 -14.017  0.00  0.00    +0.000 OA
ATOM     20  H   UNL     1       0.375 -21.266 -13.167  0.00  0.00    +0.000 HD
ENDBRANCH   5  19
BRANCH  18  21
ATOM     21  O   UNL     1      -8.737 -16.231 -16.127  0.00  0.00    +0.000 OA
ATOM     22  H   UNL     1      -9.167 -16.196 -15.254  0.00  0.00    +0.000 HD
ENDBRANCH  18  21
TORSDOF 2
ENDMDL
MODEL 3
REMARK VINA RESULT:      -5.5     18.460     21.166
REMARK  Name = Estradiol.pdbqt.pdb
REMARK  2 active torsions:
REMARK  status: ('A' for Active; 'I' for Inactive)
REMARK    1  A    between atoms: C_5  and  O_19
REMARK    2  A    between atoms: C_18  and  O_21
REMARK                            x       y       z     vdW  Elec       q    Type
REMARK                         _______ _______ _______ _____ _____    ______ ____
ROOT
ATOM      1  C   UNL     1      -5.567 -13.532   0.815  0.00  0.00    +0.000 C 
ATOM      2  C   UNL     1      -4.401 -13.983  -0.193  0.00  0.00    +0.000 C 
ATOM      3  C   UNL     1      -3.819 -15.333  -0.141  0.00  0.00    +0.000 A 
ATOM      4  C   UNL     1      -4.360 -16.514   0.636  0.00  0.00    +0.000 A 
ATOM      5  C   UNL     1      -6.550 -12.790  -0.114  0.00  0.00    +0.000 C 
ATOM      6  C   UNL     1      -6.105 -14.767   1.386  0.00  0.00    +0.000 C 
ATOM      7  C   UNL     1      -4.684 -13.372  -1.457  0.00  0.00    +0.000 C 
ATOM      8  C   UNL     1      -5.541 -16.167   1.339  0.00  0.00    +0.000 C 
ATOM      9  C   UNL     1      -6.016 -12.666  -1.424  0.00  0.00    +0.000 C 
ATOM     10  C   UNL     1      -2.665 -15.688  -0.886  0.00  0.00    +0.000 A 
ATOM     11  C   UNL     1      -4.969 -12.561   1.866  0.00  0.00    +0.000 C 
ATOM     12  C   UNL     1      -3.729 -17.876   0.653  0.00  0.00    +0.000 A 
ATOM     13  C   UNL     1      -2.041 -17.062  -0.876  0.00  0.00    +0.000 A 
ATOM     14  C   UNL     1      -2.555 -18.150  -0.112  0.00  0.00    +0.000 A 
ATOM     15  C   UNL     1      -4.272 -18.906   1.422  0.00  0.00    +0.000 A 
ATOM     16  C   UNL     1      -1.951 -19.399  -0.102  0.00  0.00    +0.000 A 
ATOM     17  C   UNL     1      -3.670 -20.164   1.437  0.00  0.00    +0.000 A 
ATOM     18  C   UNL     1      -2.521 -20.398   0.679  0.00  0.00    +0.000 A 
ENDROOT
BRANCH   5  19
ATOM     19  O   UNL     1      -7.901 -12.701   0.145  0.00  0.00    +0.000 OA
ATOM     20  H   UNL     1      -8.409 -13.363  -0.358  0.00  0.00    +0.000 HD
ENDBRANCH   5  19
BRANCH  18  21
ATOM     21  O   UNL     1      -1.923 -21.626   0.692  0.00  0.00    +0.000 OA
ATOM     22  H   UNL     1      -2.307 -22.161  -0.024  0.00  0.00    +0.000 HD
ENDBRANCH  18  21
TORSDOF 2
ENDMDL
MODEL 4
REMARK VINA RESULT:      -5.5      2.007      3.010
REMARK  Name = Estradiol.pdbqt.pdb
REMARK  2 active torsions:
REMARK  status: ('A' for Active; 'I' for Inactive)
REMARK    1  A    between atoms: C_5  and  O_19
REMARK    2  A    between atoms: C_18  and  O_21
REMARK                            x       y       z     vdW  Elec       q    Type
REMARK                         _______ _______ _______ _____ _____    ______ ____
ROOT
ATOM      1  C   UNL     1       0.965 -37.828 -10.615  0.00  0.00    +0.000 C 
ATOM      2  C   UNL     1       1.321 -36.275 -10.815  0.00  0.00    +0.000 C 
ATOM      3  C   UNL     1       0.396 -35.213 -10.390  0.00  0.00    +0.000 A 
ATOM      4  C   UNL     1      -0.834 -35.389  -9.525  0.00  0.00    +0.000 A 
ATOM      5  C   UNL     1       2.290 -38.414 -10.084  0.00  0.00    +0.000 C 
ATOM      6  C   UNL     1      -0.134 -37.870  -9.650  0.00  0.00    +0.000 C 
ATOM      7  C   UNL     1       2.727 -36.137 -10.580  0.00  0.00    +0.000 C 
ATOM      8  C   UNL     1      -1.007 -36.745  -9.148  0.00  0.00    +0.000 C 
ATOM      9  C   UNL     1       3.321 -37.437 -10.100  0.00  0.00    +0.000 C 
ATOM     10  C   UNL     1       0.601 -33.851 -10.728  0.00  0.00    +0.000 A 
ATOM     11  C   UNL     1       0.612 -38.440 -11.996  0.00  0.00    +0.000 C 
ATOM     12  C   UNL     1      -1.747 -34.270  -9.116  0.00  0.00    +0.000 A 
ATOM     13  C   UNL     1      -0.312 -32.727 -10.305  0.00  0.00    +0.000 A 
ATOM     14  C   UNL     1      -1.481 -32.924  -9.513  0.00  0.00    +0.000 A 
ATOM     15  C   UNL     1      -2.881 -34.519  -8.342  0.00  0.00    +0.000 A 
ATOM     16  C   UNL     1      -2.318 -31.877  -9.153  0.00  0.00    +0.000 A 
ATOM     17  C   UNL     1      -3.727 -33.471  -7.977  0.00  0.00    +0.000 A 
ATOM     18  C   UNL     1      -3.439 -32.167  -8.384  0.00  0.00    +0.000 A 
ENDROOT
BRANCH   5  19
ATOM     19  O   UNL     1       2.344 -39.531  -9.278  0.00  0.00    +0.000 OA
ATOM     20  H   UNL     1       1.861 -40.281  -9.669  0.00  0.00    +0.000 HD
ENDBRANCH   5  19
BRANCH  18  21
ATOM     21  O   UNL     1      -4.264 -31.136  -8.034  0.00  0.00    +0.000 OA
ATOM     22  H   UNL     1      -3.716 -30.354  -7.847  0.00  0.00    +0.000 HD
ENDBRANCH  18  21
TORSDOF 2
ENDMDL
MODEL 5
REMARK VINA RESULT:      -5.4     21.436     23.816
REMARK  Name = Estradiol.pdbqt.pdb
REMARK  2 active torsions:
REMARK  status: ('A' for Active; 'I' for Inactive)
REMARK    1  A    between atoms: C_5  and  O_19
REMARK    2  A    between atoms: C_18  and  O_21
REMARK                            x       y       z     vdW  Elec       q    Type
REMARK                         _______ _______ _______ _____ _____    ______ ____
ROOT
ATOM      1  C   UNL     1     -16.215 -18.162  -1.380  0.00  0.00    +0.000 C 
ATOM      2  C   UNL     1     -17.183 -18.452  -2.628  0.00  0.00    +0.000 C 
ATOM      3  C   UNL     1     -17.191 -17.579  -3.813  0.00  0.00    +0.000 A 
ATOM      4  C   UNL     1     -16.183 -16.499  -4.139  0.00  0.00    +0.000 A 
ATOM      5  C   UNL     1     -15.662 -19.563  -1.046  0.00  0.00    +0.000 C 
ATOM      6  C   UNL     1     -15.202 -17.223  -1.864  0.00  0.00    +0.000 C 
ATOM      7  C   UNL     1     -17.246 -19.874  -2.785  0.00  0.00    +0.000 C 
ATOM      8  C   UNL     1     -15.183 -16.413  -3.138  0.00  0.00    +0.000 C 
ATOM      9  C   UNL     1     -16.292 -20.559  -1.839  0.00  0.00    +0.000 C 
ATOM     10  C   UNL     1     -18.167 -17.704  -4.836  0.00  0.00    +0.000 A 
ATOM     11  C   UNL     1     -17.067 -17.616  -0.205  0.00  0.00    +0.000 C 
ATOM     12  C   UNL     1     -16.235 -15.635  -5.366  0.00  0.00    +0.000 A 
ATOM     13  C   UNL     1     -18.208 -16.843  -6.074  0.00  0.00    +0.000 A 
ATOM     14  C   UNL     1     -17.262 -15.811  -6.343  0.00  0.00    +0.000 A 
ATOM     15  C   UNL     1     -15.284 -14.637  -5.578  0.00  0.00    +0.000 A 
ATOM     16  C   UNL     1     -17.333 -15.017  -7.479  0.00  0.00    +0.000 A 
ATOM     17  C   UNL     1     -15.350 -13.835  -6.718  0.00  0.00    +0.000 A 
ATOM     18  C   UNL     1     -16.368 -14.032  -7.653  0.00  0.00    +0.000 A 
ENDROOT
BRANCH   5  19
ATOM     19  O   UNL     1     -14.437 -19.761  -0.447  0.00  0.00    +0.000 OA
ATOM     20  H   UNL     1     -13.804 -20.188  -1.053  0.00  0.00    +0.000 HD
ENDBRANCH   5  19
BRANCH  18  21
ATOM     21  O   UNL     1     -16.442 -13.248  -8.769  0.00  0.00    +0.000 OA
ATOM     22  H   UNL     1     -16.163 -13.779  -9.536  0.00  0.00    +0.000 HD
ENDBRANCH  18  21
TORSDOF 2
ENDMDL
MODEL 6
REMARK VINA RESULT:      -5.4      2.349      3.920
REMARK  Name = Estradiol.pdbqt.pdb
REMARK  2 active torsions:
REMARK  status: ('A' for Active; 'I' for Inactive)
REMARK    1  A    between atoms: C_5  and  O_19
REMARK    2  A    between atoms: C_18  and  O_21
REMARK                            x       y       z     vdW  Elec       q    Type
REMARK                         _______ _______ _______ _____ _____    ______ ____
ROOT
ATOM      1  C   UNL     1       3.680 -36.895 -10.877  0.00  0.00    +0.000 C 
ATOM      2  C   UNL     1       3.537 -35.296 -10.927  0.00  0.00    +0.000 C 
ATOM      3  C   UNL     1       2.241 -34.633 -10.716  0.00  0.00    +0.000 A 
ATOM      4  C   UNL     1       0.975 -35.282 -10.199  0.00  0.00    +0.000 A 
ATOM      5  C   UNL     1       4.964 -37.095 -10.046  0.00  0.00    +0.000 C 
ATOM      6  C   UNL     1       2.466 -37.388 -10.225  0.00  0.00    +0.000 C 
ATOM      7  C   UNL     1       4.725 -34.754 -10.337  0.00  0.00    +0.000 C 
ATOM      8  C   UNL     1       1.179 -36.657  -9.925  0.00  0.00    +0.000 C 
ATOM      9  C   UNL     1       5.588 -35.850  -9.767  0.00  0.00    +0.000 C 
ATOM     10  C   UNL     1       2.056 -33.245 -10.946  0.00  0.00    +0.000 A 
ATOM     11  C   UNL     1       3.876 -37.423 -12.322  0.00  0.00    +0.000 C 
ATOM     12  C   UNL     1      -0.325 -34.558  -9.999  0.00  0.00    +0.000 A 
ATOM     13  C   UNL     1       0.751 -32.519 -10.731  0.00  0.00    +0.000 A 
ATOM     14  C   UNL     1      -0.435 -33.160 -10.269  0.00  0.00    +0.000 A 
ATOM     15  C   UNL     1      -1.458 -35.236  -9.548  0.00  0.00    +0.000 A 
ATOM     16  C   UNL     1      -1.630 -32.475 -10.099  0.00  0.00    +0.000 A 
ATOM     17  C   UNL     1      -2.663 -34.553  -9.375  0.00  0.00    +0.000 A 
ATOM     18  C   UNL     1      -2.737 -33.187  -9.651  0.00  0.00    +0.000 A 
ENDROOT
BRANCH   5  19
ATOM     19  O   UNL     1       5.198 -38.225  -9.291  0.00  0.00    +0.000 OA
ATOM     20  H   UNL     1       6.048 -38.173  -8.818  0.00  0.00    +0.000 HD
ENDBRANCH   5  19
BRANCH  18  21
ATOM     21  O   UNL     1      -3.914 -32.513  -9.489  0.00  0.00    +0.000 OA
ATOM     22  H   UNL     1      -3.734 -31.696  -8.991  0.00  0.00    +0.000 HD
ENDBRANCH  18  21
TORSDOF 2
ENDMDL
MODEL 7
REMARK VINA RESULT:      -5.2      4.972      8.676
REMARK  Name = Estradiol.pdbqt.pdb
REMARK  2 active torsions:
REMARK  status: ('A' for Active; 'I' for Inactive)
REMARK    1  A    between atoms: C_5  and  O_19
REMARK    2  A    between atoms: C_18  and  O_21
REMARK                            x       y       z     vdW  Elec       q    Type
REMARK                         _______ _______ _______ _____ _____    ______ ____
ROOT
ATOM      1  C   UNL     1      -4.674 -37.565  -0.722  0.00  0.00    +0.000 C 
ATOM      2  C   UNL     1      -3.348 -37.103  -1.501  0.00  0.00    +0.000 C 
ATOM      3  C   UNL     1      -3.414 -36.222  -2.676  0.00  0.00    +0.000 A 
ATOM      4  C   UNL     1      -4.627 -35.452  -3.153  0.00  0.00    +0.000 A 
ATOM      5  C   UNL     1      -4.273 -37.401   0.759  0.00  0.00    +0.000 C 
ATOM      6  C   UNL     1      -5.734 -36.655  -1.156  0.00  0.00    +0.000 C 
ATOM      7  C   UNL     1      -2.332 -36.903  -0.510  0.00  0.00    +0.000 C 
ATOM      8  C   UNL     1      -5.743 -35.679  -2.309  0.00  0.00    +0.000 C 
ATOM      9  C   UNL     1      -2.902 -37.052   0.878  0.00  0.00    +0.000 C 
ATOM     10  C   UNL     1      -2.281 -35.959  -3.489  0.00  0.00    +0.000 A 
ATOM     11  C   UNL     1      -4.952 -39.056  -1.051  0.00  0.00    +0.000 C 
ATOM     12  C   UNL     1      -4.642 -34.561  -4.361  0.00  0.00    +0.000 A 
ATOM     13  C   UNL     1      -2.297 -35.053  -4.695  0.00  0.00    +0.000 A 
ATOM     14  C   UNL     1      -3.461 -34.362  -5.140  0.00  0.00    +0.000 A 
ATOM     15  C   UNL     1      -5.811 -33.911  -4.755  0.00  0.00    +0.000 A 
ATOM     16  C   UNL     1      -3.457 -33.549  -6.265  0.00  0.00    +0.000 A 
ATOM     17  C   UNL     1      -5.814 -33.093  -5.886  0.00  0.00    +0.000 A 
ATOM     18  C   UNL     1      -4.643 -32.921  -6.626  0.00  0.00    +0.000 A 
ENDROOT
BRANCH   5  19
ATOM     19  O   UNL     1      -5.189 -37.149   1.758  0.00  0.00    +0.000 OA
ATOM     20  H   UNL     1      -4.755 -37.025   2.621  0.00  0.00    +0.000 HD
ENDBRANCH   5  19
BRANCH  18  21
ATOM     21  O   UNL     1      -4.639 -32.126  -7.737  0.00  0.00    +0.000 OA
ATOM     22  H   UNL     1      -4.358 -31.231  -7.473  0.00  0.00    +0.000 HD
ENDBRANCH  18  21
TORSDOF 2
ENDMDL
MODEL 8
REMARK VINA RESULT:      -5.0     18.357     20.799
REMARK  Name = Estradiol.pdbqt.pdb
REMARK  2 active torsions:
REMARK  status: ('A' for Active; 'I' for Inactive)
REMARK    1  A    between atoms: C_5  and  O_19
REMARK    2  A    between atoms: C_18  and  O_21
REMARK                            x       y       z     vdW  Elec       q    Type
REMARK                         _______ _______ _______ _____ _____    ______ ____
ROOT
ATOM      1  C   UNL     1      -8.952 -14.149 -15.369  0.00  0.00    +0.000 C 
ATOM      2  C   UNL     1      -7.376 -13.919 -15.161  0.00  0.00    +0.000 C 
ATOM      3  C   UNL     1      -6.421 -15.036 -15.223  0.00  0.00    +0.000 A 
ATOM      4  C   UNL     1      -6.711 -16.437 -15.715  0.00  0.00    +0.000 A 
ATOM      5  C   UNL     1      -9.346 -12.981 -16.298  0.00  0.00    +0.000 C 
ATOM      6  C   UNL     1      -9.088 -15.470 -15.985  0.00  0.00    +0.000 C 
ATOM      7  C   UNL     1      -7.054 -12.664 -15.773  0.00  0.00    +0.000 C 
ATOM      8  C   UNL     1      -8.060 -16.566 -16.130  0.00  0.00    +0.000 C 
ATOM      9  C   UNL     1      -8.249 -12.101 -16.499  0.00  0.00    +0.000 C 
ATOM     10  C   UNL     1      -5.060 -14.887 -14.853  0.00  0.00    +0.000 A 
ATOM     11  C   UNL     1      -9.661 -14.019 -13.996  0.00  0.00    +0.000 C 
ATOM     12  C   UNL     1      -5.698 -17.544 -15.762  0.00  0.00    +0.000 A 
ATOM     13  C   UNL     1      -4.041 -15.999 -14.914  0.00  0.00    +0.000 A 
ATOM     14  C   UNL     1      -4.348 -17.319 -15.355  0.00  0.00    +0.000 A 
ATOM     15  C   UNL     1      -6.052 -18.820 -16.199  0.00  0.00    +0.000 A 
ATOM     16  C   UNL     1      -3.398 -18.331 -15.381  0.00  0.00    +0.000 A 
ATOM     17  C   UNL     1      -5.103 -19.842 -16.229  0.00  0.00    +0.000 A 
ATOM     18  C   UNL     1      -3.792 -19.590 -15.821  0.00  0.00    +0.000 A 
ENDROOT
BRANCH   5  19
ATOM     19  O   UNL     1     -10.412 -13.045 -17.169  0.00  0.00    +0.000 OA
ATOM     20  H   UNL     1     -10.590 -13.959 -17.455  0.00  0.00    +0.000 HD
ENDBRANCH   5  19
BRANCH  18  21
ATOM     21  O   UNL     1      -2.858 -20.586 -15.842  0.00  0.00    +0.000 OA
ATOM     22  H   UNL     1      -2.383 -20.580 -14.992  0.00  0.00    +0.000 HD
ENDBRANCH  18  21
TORSDOF 2
ENDMDL
MODEL 9
REMARK VINA RESULT:      -4.9     18.459     20.288
REMARK  Name = Estradiol.pdbqt.pdb
REMARK  2 active torsions:
REMARK  status: ('A' for Active; 'I' for Inactive)
REMARK    1  A    between atoms: C_5  and  O_19
REMARK    2  A    between atoms: C_18  and  O_21
REMARK                            x       y       z     vdW  Elec       q    Type
REMARK                         _______ _______ _______ _____ _____    ______ ____
ROOT
ATOM      1  C   UNL     1      -5.405 -18.088 -16.454  0.00  0.00    +0.000 C 
ATOM      2  C   UNL     1      -6.914 -18.230 -16.983  0.00  0.00    +0.000 C 
ATOM      3  C   UNL     1      -7.973 -17.308 -16.543  0.00  0.00    +0.000 A 
ATOM      4  C   UNL     1      -7.777 -16.015 -15.781  0.00  0.00    +0.000 A 
ATOM      5  C   UNL     1      -4.575 -18.280 -17.741  0.00  0.00    +0.000 C 
ATOM      6  C   UNL     1      -5.304 -16.748 -15.876  0.00  0.00    +0.000 C 
ATOM      7  C   UNL     1      -6.838 -18.630 -18.357  0.00  0.00    +0.000 C 
ATOM      8  C   UNL     1      -6.403 -15.774 -15.526  0.00  0.00    +0.000 C 
ATOM      9  C   UNL     1      -5.408 -18.632 -18.835  0.00  0.00    +0.000 C 
ATOM     10  C   UNL     1      -9.341 -17.530 -16.844  0.00  0.00    +0.000 A 
ATOM     11  C   UNL     1      -5.121 -19.231 -15.445  0.00  0.00    +0.000 C 
ATOM     12  C   UNL     1      -8.893 -15.106 -15.355  0.00  0.00    +0.000 A 
ATOM     13  C   UNL     1     -10.460 -16.607 -16.426  0.00  0.00    +0.000 A 
ATOM     14  C   UNL     1     -10.250 -15.409 -15.683  0.00  0.00    +0.000 A 
ATOM     15  C   UNL     1      -8.633 -13.946 -14.625  0.00  0.00    +0.000 A 
ATOM     16  C   UNL     1     -11.297 -14.586 -15.291  0.00  0.00    +0.000 A 
ATOM     17  C   UNL     1      -9.680 -13.115 -14.229  0.00  0.00    +0.000 A 
ATOM     18  C   UNL     1     -10.996 -13.442 -14.563  0.00  0.00    +0.000 A 
ENDROOT
BRANCH   5  19
ATOM     19  O   UNL     1      -3.323 -17.729 -17.912  0.00  0.00    +0.000 OA
ATOM     20  H   UNL     1      -2.629 -18.412 -17.938  0.00  0.00    +0.000 HD
ENDBRANCH   5  19
BRANCH  18  21
ATOM     21  O   UNL     1     -12.028 -12.636 -14.174  0.00  0.00    +0.000 OA
ATOM     22  H   UNL     1     -11.687 -11.992 -13.528  0.00  0.00    +0.000 HD
ENDBRANCH  18  21
TORSDOF 2
ENDMDL
