MODEL 1
REMARK VINA RESULT:      -7.1      0.000      0.000
REMARK  Name = 
REMARK  11 active torsions:
REMARK  status: ('A' for Active; 'I' for Inactive)
REMARK    1  A    between atoms: O_1  and  C_16
REMARK    2  A    between atoms: O_1  and  C_22
REMARK    3  A    between atoms: O_6  and  C_24
REMARK    4  A    between atoms: O_8  and  C_26
REMARK    5  A    between atoms: O_11  and  C_36
REMARK    6  A    between atoms: O_11  and  C_41
REMARK    7  A    between atoms: O_12  and  C_37
REMARK    8  A    between atoms: O_12  and  C_42
REMARK    9  A    between atoms: O_13  and  C_39
REMARK   10  A    between atoms: C_17  and  C_23
REMARK   11  A    between atoms: C_35  and  C_40
REMARK                            x       y       z     vdW  Elec       q    Type
REMARK                         _______ _______ _______ _____ _____    ______ ____
ROOT
ATOM      1  O   UNL     1      -9.127 -37.616  -5.852  0.00  0.00    +0.000 OA
ATOM      2  O   UNL     1     -10.112 -38.809  -4.161  0.00  0.00    +0.000 OA
ATOM      3  O   UNL     1      -8.598 -31.079  -0.585  0.00  0.00    +0.000 OA
ATOM      4  O   UNL     1     -10.084 -32.466   0.715  0.00  0.00    +0.000 OA
ATOM      5  C   UNL     1      -9.037 -35.533  -4.841  0.00  0.00    +0.000 C 
ATOM      6  C   UNL     1      -9.236 -36.577  -3.759  0.00  0.00    +0.000 C 
ATOM      7  C   UNL     1      -8.255 -34.345  -4.296  0.00  0.00    +0.000 C 
ATOM      8  C   UNL     1     -10.209 -36.076  -2.693  0.00  0.00    +0.000 C 
ATOM      9  C   UNL     1      -8.818 -33.897  -2.948  0.00  0.00    +0.000 A 
ATOM     10  C   UNL     1      -9.702 -34.719  -2.175  0.00  0.00    +0.000 A 
ATOM     11  C   UNL     1      -8.413 -36.371  -5.929  0.00  0.00    +0.000 C 
ATOM     12  C   UNL     1      -9.588 -37.787  -4.571  0.00  0.00    +0.000 C 
ATOM     13  C   UNL     1      -8.417 -32.646  -2.440  0.00  0.00    +0.000 A 
ATOM     14  C   UNL     1     -10.160 -34.271  -0.919  0.00  0.00    +0.000 A 
ATOM     15  C   UNL     1      -8.891 -32.252  -1.207  0.00  0.00    +0.000 A 
ATOM     16  C   UNL     1      -9.736 -33.041  -0.468  0.00  0.00    +0.000 A 
ATOM     17  C   UNL     1      -9.360 -31.221   0.633  0.00  0.00    +0.000 C 
ENDROOT
BRANCH   8  18
ATOM     18  C   UNL     1     -11.677 -36.044  -3.123  0.00  0.00    +0.000 A 
ATOM     19  C   UNL     1     -12.116 -35.399  -4.293  0.00  0.00    +0.000 A 
ATOM     20  C   UNL     1     -12.638 -36.696  -2.331  0.00  0.00    +0.000 A 
ATOM     21  C   UNL     1     -13.980 -36.721  -2.710  0.00  0.00    +0.000 A 
ATOM     22  C   UNL     1     -13.463 -35.392  -4.683  0.00  0.00    +0.000 A 
ATOM     23  C   UNL     1     -14.389 -36.060  -3.880  0.00  0.00    +0.000 A 
BRANCH  21  24
ATOM     24  O   UNL     1     -14.992 -37.348  -2.019  0.00  0.00    +0.000 OA
ATOM     25  C   UNL     1     -15.310 -36.810  -0.738  0.00  0.00    +0.000 C 
ENDBRANCH  21  24
BRANCH  22  26
ATOM     26  O   UNL     1     -13.677 -34.710  -5.850  0.00  0.00    +0.000 OA
ATOM     27  C   UNL     1     -13.650 -35.445  -7.065  0.00  0.00    +0.000 C 
ENDBRANCH  22  26
BRANCH  23  28
ATOM     28  O   UNL     1     -15.723 -36.113  -4.198  0.00  0.00    +0.000 OA
ATOM     29  H   UNL     1     -16.185 -35.782  -3.403  0.00  0.00    +0.000 HD
ENDBRANCH  23  28
ENDBRANCH   8  18
BRANCH   7  30
ATOM     30  O   UNL     1      -6.900 -34.734  -4.064  0.00  0.00    +0.000 OA
BRANCH  30  34
ATOM     31  O   UNL     1      -6.125 -34.047  -6.160  0.00  0.00    +0.000 OA
ATOM     32  O   UNL     1      -2.801 -33.025  -7.357  0.00  0.00    +0.000 OA
ATOM     33  O   UNL     1      -4.383 -32.620  -9.065  0.00  0.00    +0.000 OA
ATOM     34  C   UNL     1      -5.953 -33.905  -4.748  0.00  0.00    +0.000 C 
ATOM     35  C   UNL     1      -4.548 -34.351  -4.284  0.00  0.00    +0.000 C 
ATOM     36  C   UNL     1      -3.754 -33.783  -6.603  0.00  0.00    +0.000 C 
ATOM     37  C   UNL     1      -3.448 -33.668  -5.110  0.00  0.00    +0.000 C 
ATOM     38  C   UNL     1      -5.166 -33.271  -6.873  0.00  0.00    +0.000 C 
ATOM     39  C   UNL     1      -5.402 -33.344  -8.378  0.00  0.00    +0.000 C 
ATOM     40  C   UNL     1      -3.084 -33.124  -8.756  0.00  0.00    +0.000 C 
ATOM     41  C   UNL     1      -2.063 -32.281  -9.499  0.00  0.00    +0.000 C 
BRANCH  35  42
ATOM     42  O   UNL     1      -4.388 -34.030  -2.892  0.00  0.00    +0.000 OA
ATOM     43  H   UNL     1      -5.102 -34.504  -2.422  0.00  0.00    +0.000 HD
ENDBRANCH  35  42
BRANCH  37  44
ATOM     44  O   UNL     1      -2.179 -34.291  -4.856  0.00  0.00    +0.000 OA
ATOM     45  H   UNL     1      -1.626 -34.100  -5.638  0.00  0.00    +0.000 HD
ENDBRANCH  37  44
ENDBRANCH  30  34
ENDBRANCH   7  30
TORSDOF 8
ENDMDL
MODEL 2
REMARK VINA RESULT:      -6.7      3.915      6.701
REMARK  Name = 
REMARK  11 active torsions:
REMARK  status: ('A' for Active; 'I' for Inactive)
REMARK    1  A    between atoms: O_1  and  C_16
REMARK    2  A    between atoms: O_1  and  C_22
REMARK    3  A    between atoms: O_6  and  C_24
REMARK    4  A    between atoms: O_8  and  C_26
REMARK    5  A    between atoms: O_11  and  C_36
REMARK    6  A    between atoms: O_11  and  C_41
REMARK    7  A    between atoms: O_12  and  C_37
REMARK    8  A    between atoms: O_12  and  C_42
REMARK    9  A    between atoms: O_13  and  C_39
REMARK   10  A    between atoms: C_17  and  C_23
REMARK   11  A    between atoms: C_35  and  C_40
REMARK                            x       y       z     vdW  Elec       q    Type
REMARK                         _______ _______ _______ _____ _____    ______ ____
ROOT
ATOM      1  O   UNL     1      -7.099 -37.044  -0.847  0.00  0.00    +0.000 OA
ATOM      2  O   UNL     1      -8.507 -35.236  -0.917  0.00  0.00    +0.000 OA
ATOM      3  O   UNL     1      -2.752 -33.573  -7.157  0.00  0.00    +0.000 OA
ATOM      4  O   UNL     1      -4.699 -32.153  -7.241  0.00  0.00    +0.000 OA
ATOM      5  C   UNL     1      -5.809 -36.588  -2.717  0.00  0.00    +0.000 C 
ATOM      6  C   UNL     1      -6.510 -35.309  -2.303  0.00  0.00    +0.000 C 
ATOM      7  C   UNL     1      -4.471 -36.271  -3.373  0.00  0.00    +0.000 C 
ATOM      8  C   UNL     1      -6.984 -34.528  -3.528  0.00  0.00    +0.000 C 
ATOM      9  C   UNL     1      -4.623 -35.158  -4.408  0.00  0.00    +0.000 A 
ATOM     10  C   UNL     1      -5.780 -34.313  -4.460  0.00  0.00    +0.000 A 
ATOM     11  C   UNL     1      -5.813 -37.347  -1.414  0.00  0.00    +0.000 C 
ATOM     12  C   UNL     1      -7.518 -35.825  -1.320  0.00  0.00    +0.000 C 
ATOM     13  C   UNL     1      -3.566 -34.938  -5.312  0.00  0.00    +0.000 A 
ATOM     14  C   UNL     1      -5.850 -33.275  -5.411  0.00  0.00    +0.000 A 
ATOM     15  C   UNL     1      -3.681 -33.910  -6.223  0.00  0.00    +0.000 A 
ATOM     16  C   UNL     1      -4.788 -33.102  -6.271  0.00  0.00    +0.000 A 
ATOM     17  C   UNL     1      -3.405 -32.459  -7.801  0.00  0.00    +0.000 C 
ENDROOT
BRANCH   8  18
ATOM     18  C   UNL     1      -8.199 -35.124  -4.243  0.00  0.00    +0.000 A 
ATOM     19  C   UNL     1      -9.523 -34.819  -3.881  0.00  0.00    +0.000 A 
ATOM     20  C   UNL     1      -7.997 -36.007  -5.317  0.00  0.00    +0.000 A 
ATOM     21  C   UNL     1      -9.078 -36.542  -6.017  0.00  0.00    +0.000 A 
ATOM     22  C   UNL     1     -10.626 -35.361  -4.556  0.00  0.00    +0.000 A 
ATOM     23  C   UNL     1     -10.390 -36.224  -5.626  0.00  0.00    +0.000 A 
BRANCH  21  24
ATOM     24  O   UNL     1      -8.988 -37.394  -7.094  0.00  0.00    +0.000 OA
ATOM     25  C   UNL     1      -8.259 -38.601  -6.885  0.00  0.00    +0.000 C 
ENDBRANCH  21  24
BRANCH  22  26
ATOM     26  O   UNL     1     -11.824 -34.935  -4.048  0.00  0.00    +0.000 OA
ATOM     27  C   UNL     1     -12.552 -35.828  -3.218  0.00  0.00    +0.000 C 
ENDBRANCH  22  26
BRANCH  23  28
ATOM     28  O   UNL     1     -11.413 -36.785  -6.348  0.00  0.00    +0.000 OA
ATOM     29  H   UNL     1     -11.515 -37.686  -5.983  0.00  0.00    +0.000 HD
ENDBRANCH  23  28
ENDBRANCH   8  18
BRANCH   7  30
ATOM     30  O   UNL     1      -3.559 -35.789  -2.385  0.00  0.00    +0.000 OA
BRANCH  30  34
ATOM     31  O   UNL     1      -2.557 -37.815  -2.980  0.00  0.00    +0.000 OA
ATOM     32  O   UNL     1      -0.064 -39.933  -1.297  0.00  0.00    +0.000 OA
ATOM     33  O   UNL     1      -0.431 -40.774  -3.475  0.00  0.00    +0.000 OA
ATOM     34  C   UNL     1      -2.371 -36.582  -2.282  0.00  0.00    +0.000 C 
ATOM     35  C   UNL     1      -2.105 -36.799  -0.774  0.00  0.00    +0.000 C 
ATOM     36  C   UNL     1      -1.194 -39.060  -1.403  0.00  0.00    +0.000 C 
ATOM     37  C   UNL     1      -0.971 -37.810  -0.551  0.00  0.00    +0.000 C 
ATOM     38  C   UNL     1      -1.408 -38.650  -2.858  0.00  0.00    +0.000 C 
ATOM     39  C   UNL     1      -1.561 -39.927  -3.677  0.00  0.00    +0.000 C 
ATOM     40  C   UNL     1      -0.264 -41.102  -2.096  0.00  0.00    +0.000 C 
ATOM     41  C   UNL     1       0.972 -41.973  -1.966  0.00  0.00    +0.000 C 
BRANCH  35  42
ATOM     42  O   UNL     1      -1.767 -35.540  -0.169  0.00  0.00    +0.000 OA
ATOM     43  H   UNL     1      -1.453 -35.749   0.732  0.00  0.00    +0.000 HD
ENDBRANCH  35  42
BRANCH  37  44
ATOM     44  O   UNL     1      -0.922 -38.204   0.830  0.00  0.00    +0.000 OA
ATOM     45  H   UNL     1      -1.443 -39.027   0.892  0.00  0.00    +0.000 HD
ENDBRANCH  37  44
ENDBRANCH  30  34
ENDBRANCH   7  30
TORSDOF 8
ENDMDL
MODEL 3
REMARK VINA RESULT:      -6.4      5.453     10.050
REMARK  Name = 
REMARK  11 active torsions:
REMARK  status: ('A' for Active; 'I' for Inactive)
REMARK    1  A    between atoms: O_1  and  C_16
REMARK    2  A    between atoms: O_1  and  C_22
REMARK    3  A    between atoms: O_6  and  C_24
REMARK    4  A    between atoms: O_8  and  C_26
REMARK    5  A    between atoms: O_11  and  C_36
REMARK    6  A    between atoms: O_11  and  C_41
REMARK    7  A    between atoms: O_12  and  C_37
REMARK    8  A    between atoms: O_12  and  C_42
REMARK    9  A    between atoms: O_13  and  C_39
REMARK   10  A    between atoms: C_17  and  C_23
REMARK   11  A    between atoms: C_35  and  C_40
REMARK                            x       y       z     vdW  Elec       q    Type
REMARK                         _______ _______ _______ _____ _____    ______ ____
ROOT
ATOM      1  O   UNL     1      -3.282 -34.996  -2.732  0.00  0.00    +0.000 OA
ATOM      2  O   UNL     1      -2.447 -33.611  -4.358  0.00  0.00    +0.000 OA
ATOM      3  O   UNL     1      -1.681 -41.503  -7.816  0.00  0.00    +0.000 OA
ATOM      4  O   UNL     1      -1.376 -39.720  -9.412  0.00  0.00    +0.000 OA
ATOM      5  C   UNL     1      -3.261 -36.999  -3.897  0.00  0.00    +0.000 C 
ATOM      6  C   UNL     1      -2.339 -36.027  -4.609  0.00  0.00    +0.000 C 
ATOM      7  C   UNL     1      -2.773 -38.429  -4.086  0.00  0.00    +0.000 C 
ATOM      8  C   UNL     1      -2.473 -36.163  -6.125  0.00  0.00    +0.000 C 
ATOM      9  C   UNL     1      -2.427 -38.696  -5.550  0.00  0.00    +0.000 A 
ATOM     10  C   UNL     1      -2.246 -37.638  -6.500  0.00  0.00    +0.000 A 
ATOM     11  C   UNL     1      -3.266 -36.415  -2.506  0.00  0.00    +0.000 C 
ATOM     12  C   UNL     1      -2.702 -34.732  -3.948  0.00  0.00    +0.000 C 
ATOM     13  C   UNL     1      -2.243 -40.031  -5.960  0.00  0.00    +0.000 A 
ATOM     14  C   UNL     1      -1.888 -37.940  -7.830  0.00  0.00    +0.000 A 
ATOM     15  C   UNL     1      -1.892 -40.276  -7.270  0.00  0.00    +0.000 A 
ATOM     16  C   UNL     1      -1.719 -39.261  -8.178  0.00  0.00    +0.000 A 
ATOM     17  C   UNL     1      -1.356 -41.143  -9.176  0.00  0.00    +0.000 C 
ENDROOT
BRANCH   8  18
ATOM     18  C   UNL     1      -3.761 -35.584  -6.713  0.00  0.00    +0.000 A 
ATOM     19  C   UNL     1      -3.808 -34.345  -7.377  0.00  0.00    +0.000 A 
ATOM     20  C   UNL     1      -4.955 -36.318  -6.604  0.00  0.00    +0.000 A 
ATOM     21  C   UNL     1      -6.142 -35.841  -7.160  0.00  0.00    +0.000 A 
ATOM     22  C   UNL     1      -4.994 -33.835  -7.924  0.00  0.00    +0.000 A 
ATOM     23  C   UNL     1      -6.158 -34.596  -7.810  0.00  0.00    +0.000 A 
BRANCH  21  24
ATOM     24  O   UNL     1      -7.355 -36.490  -7.128  0.00  0.00    +0.000 OA
ATOM     25  C   UNL     1      -7.819 -36.898  -5.844  0.00  0.00    +0.000 C 
ENDBRANCH  21  24
BRANCH  22  26
ATOM     26  O   UNL     1      -4.822 -32.618  -8.527  0.00  0.00    +0.000 OA
ATOM     27  C   UNL     1      -3.831 -31.748  -8.001  0.00  0.00    +0.000 C 
ENDBRANCH  22  26
BRANCH  23  28
ATOM     28  O   UNL     1      -7.356 -34.175  -8.331  0.00  0.00    +0.000 OA
ATOM     29  H   UNL     1      -7.761 -34.979  -8.711  0.00  0.00    +0.000 HD
ENDBRANCH  23  28
ENDBRANCH   8  18
BRANCH   7  30
ATOM     30  O   UNL     1      -1.571 -38.624  -3.340  0.00  0.00    +0.000 OA
BRANCH  30  34
ATOM     31  O   UNL     1      -3.073 -39.835  -2.019  0.00  0.00    +0.000 OA
ATOM     32  O   UNL     1      -2.804 -41.265   1.359  0.00  0.00    +0.000 OA
ATOM     33  O   UNL     1      -4.823 -42.005   0.378  0.00  0.00    +0.000 OA
ATOM     34  C   UNL     1      -1.693 -39.637  -2.333  0.00  0.00    +0.000 C 
ATOM     35  C   UNL     1      -0.880 -39.153  -1.110  0.00  0.00    +0.000 C 
ATOM     36  C   UNL     1      -2.606 -40.305   0.316  0.00  0.00    +0.000 C 
ATOM     37  C   UNL     1      -1.111 -40.065   0.104  0.00  0.00    +0.000 C 
ATOM     38  C   UNL     1      -3.228 -40.804  -0.985  0.00  0.00    +0.000 C 
ATOM     39  C   UNL     1      -4.701 -41.090  -0.710  0.00  0.00    +0.000 C 
ATOM     40  C   UNL     1      -4.201 -41.498   1.559  0.00  0.00    +0.000 C 
ATOM     41  C   UNL     1      -4.348 -42.541   2.652  0.00  0.00    +0.000 C 
BRANCH  35  42
ATOM     42  O   UNL     1       0.516 -39.132  -1.451  0.00  0.00    +0.000 OA
ATOM     43  H   UNL     1       0.798 -40.066  -1.487  0.00  0.00    +0.000 HD
ENDBRANCH  35  42
BRANCH  37  44
ATOM     44  O   UNL     1      -0.576 -39.455   1.290  0.00  0.00    +0.000 OA
ATOM     45  H   UNL     1       0.391 -39.421   1.161  0.00  0.00    +0.000 HD
ENDBRANCH  37  44
ENDBRANCH  30  34
ENDBRANCH   7  30
TORSDOF 8
ENDMDL
MODEL 4
REMARK VINA RESULT:      -6.3     15.565     19.237
REMARK  Name = 
REMARK  11 active torsions:
REMARK  status: ('A' for Active; 'I' for Inactive)
REMARK    1  A    between atoms: O_1  and  C_16
REMARK    2  A    between atoms: O_1  and  C_22
REMARK    3  A    between atoms: O_6  and  C_24
REMARK    4  A    between atoms: O_8  and  C_26
REMARK    5  A    between atoms: O_11  and  C_36
REMARK    6  A    between atoms: O_11  and  C_41
REMARK    7  A    between atoms: O_12  and  C_37
REMARK    8  A    between atoms: O_12  and  C_42
REMARK    9  A    between atoms: O_13  and  C_39
REMARK   10  A    between atoms: C_17  and  C_23
REMARK   11  A    between atoms: C_35  and  C_40
REMARK                            x       y       z     vdW  Elec       q    Type
REMARK                         _______ _______ _______ _____ _____    ______ ____
ROOT
ATOM      1  O   UNL     1     -14.877 -21.891   1.349  0.00  0.00    +0.000 OA
ATOM      2  O   UNL     1     -12.909 -22.626   2.267  0.00  0.00    +0.000 OA
ATOM      3  O   UNL     1     -11.383 -14.277   0.595  0.00  0.00    +0.000 OA
ATOM      4  O   UNL     1      -9.728 -15.289   2.028  0.00  0.00    +0.000 OA
ATOM      5  C   UNL     1     -14.407 -19.626   1.214  0.00  0.00    +0.000 C 
ATOM      6  C   UNL     1     -13.096 -20.373   1.371  0.00  0.00    +0.000 C 
ATOM      7  C   UNL     1     -14.198 -18.351   0.409  0.00  0.00    +0.000 C 
ATOM      8  C   UNL     1     -12.147 -19.617   2.299  0.00  0.00    +0.000 C 
ATOM      9  C   UNL     1     -12.980 -17.581   0.916  0.00  0.00    +0.000 A 
ATOM     10  C   UNL     1     -11.995 -18.180   1.769  0.00  0.00    +0.000 A 
ATOM     11  C   UNL     1     -15.282 -20.710   0.637  0.00  0.00    +0.000 C 
ATOM     12  C   UNL     1     -13.575 -21.740   1.758  0.00  0.00    +0.000 C 
ATOM     13  C   UNL     1     -12.807 -16.249   0.492  0.00  0.00    +0.000 A 
ATOM     14  C   UNL     1     -10.869 -17.436   2.174  0.00  0.00    +0.000 A 
ATOM     15  C   UNL     1     -11.689 -15.562   0.915  0.00  0.00    +0.000 A 
ATOM     16  C   UNL     1     -10.748 -16.138   1.730  0.00  0.00    +0.000 A 
ATOM     17  C   UNL     1     -10.139 -14.109   1.306  0.00  0.00    +0.000 C 
ENDROOT
BRANCH   8  18
ATOM     18  C   UNL     1     -12.514 -19.674   3.783  0.00  0.00    +0.000 A 
ATOM     19  C   UNL     1     -13.593 -18.957   4.330  0.00  0.00    +0.000 A 
ATOM     20  C   UNL     1     -11.756 -20.483   4.646  0.00  0.00    +0.000 A 
ATOM     21  C   UNL     1     -12.082 -20.590   5.998  0.00  0.00    +0.000 A 
ATOM     22  C   UNL     1     -13.927 -19.032   5.690  0.00  0.00    +0.000 A 
ATOM     23  C   UNL     1     -13.162 -19.856   6.517  0.00  0.00    +0.000 A 
BRANCH  21  24
ATOM     24  O   UNL     1     -11.420 -21.370   6.919  0.00  0.00    +0.000 OA
ATOM     25  C   UNL     1     -10.000 -21.251   6.943  0.00  0.00    +0.000 C 
ENDBRANCH  21  24
BRANCH  22  26
ATOM     26  O   UNL     1     -15.010 -18.261   6.017  0.00  0.00    +0.000 OA
ATOM     27  C   UNL     1     -14.866 -16.849   5.956  0.00  0.00    +0.000 C 
ENDBRANCH  22  26
BRANCH  23  28
ATOM     28  O   UNL     1     -13.431 -19.996   7.855  0.00  0.00    +0.000 OA
ATOM     29  H   UNL     1     -14.275 -20.487   7.892  0.00  0.00    +0.000 HD
ENDBRANCH  23  28
ENDBRANCH   8  18
BRANCH   7  30
ATOM     30  O   UNL     1     -13.932 -18.686  -0.953  0.00  0.00    +0.000 OA
BRANCH  30  34
ATOM     31  O   UNL     1     -15.744 -17.223  -1.156  0.00  0.00    +0.000 OA
ATOM     32  O   UNL     1     -18.539 -17.057  -3.541  0.00  0.00    +0.000 OA
ATOM     33  O   UNL     1     -18.580 -15.122  -2.186  0.00  0.00    +0.000 OA
ATOM     34  C   UNL     1     -14.833 -18.057  -1.873  0.00  0.00    +0.000 C 
ATOM     35  C   UNL     1     -15.557 -19.190  -2.638  0.00  0.00    +0.000 C 
ATOM     36  C   UNL     1     -17.568 -17.678  -2.691  0.00  0.00    +0.000 C 
ATOM     37  C   UNL     1     -16.695 -18.633  -3.505  0.00  0.00    +0.000 C 
ATOM     38  C   UNL     1     -16.686 -16.618  -2.037  0.00  0.00    +0.000 C 
ATOM     39  C   UNL     1     -17.603 -15.653  -1.292  0.00  0.00    +0.000 C 
ATOM     40  C   UNL     1     -19.356 -16.158  -2.787  0.00  0.00    +0.000 C 
ATOM     41  C   UNL     1     -20.343 -15.512  -3.742  0.00  0.00    +0.000 C 
BRANCH  35  42
ATOM     42  O   UNL     1     -14.606 -19.885  -3.462  0.00  0.00    +0.000 OA
ATOM     43  H   UNL     1     -15.126 -20.322  -4.164  0.00  0.00    +0.000 HD
ENDBRANCH  35  42
BRANCH  37  44
ATOM     44  O   UNL     1     -17.522 -19.706  -3.986  0.00  0.00    +0.000 OA
ATOM     45  H   UNL     1     -16.959 -20.503  -3.974  0.00  0.00    +0.000 HD
ENDBRANCH  37  44
ENDBRANCH  30  34
ENDBRANCH   7  30
TORSDOF 8
ENDMDL
MODEL 5
REMARK VINA RESULT:      -6.0      4.677      9.768
REMARK  Name = 
REMARK  11 active torsions:
REMARK  status: ('A' for Active; 'I' for Inactive)
REMARK    1  A    between atoms: O_1  and  C_16
REMARK    2  A    between atoms: O_1  and  C_22
REMARK    3  A    between atoms: O_6  and  C_24
REMARK    4  A    between atoms: O_8  and  C_26
REMARK    5  A    between atoms: O_11  and  C_36
REMARK    6  A    between atoms: O_11  and  C_41
REMARK    7  A    between atoms: O_12  and  C_37
REMARK    8  A    between atoms: O_12  and  C_42
REMARK    9  A    between atoms: O_13  and  C_39
REMARK   10  A    between atoms: C_17  and  C_23
REMARK   11  A    between atoms: C_35  and  C_40
REMARK                            x       y       z     vdW  Elec       q    Type
REMARK                         _______ _______ _______ _____ _____    ______ ____
ROOT
ATOM      1  O   UNL     1      -4.048 -31.857  -7.705  0.00  0.00    +0.000 OA
ATOM      2  O   UNL     1      -5.995 -33.019  -7.369  0.00  0.00    +0.000 OA
ATOM      3  O   UNL     1      -0.450 -39.078 -10.084  0.00  0.00    +0.000 OA
ATOM      4  O   UNL     1      -2.477 -39.982  -9.142  0.00  0.00    +0.000 OA
ATOM      5  C   UNL     1      -2.625 -33.628  -8.155  0.00  0.00    +0.000 C 
ATOM      6  C   UNL     1      -4.051 -34.108  -8.343  0.00  0.00    +0.000 C 
ATOM      7  C   UNL     1      -1.684 -34.384  -9.086  0.00  0.00    +0.000 C 
ATOM      8  C   UNL     1      -4.222 -35.529  -7.809  0.00  0.00    +0.000 C 
ATOM      9  C   UNL     1      -1.959 -35.886  -9.034  0.00  0.00    +0.000 A 
ATOM     10  C   UNL     1      -3.163 -36.425  -8.473  0.00  0.00    +0.000 A 
ATOM     11  C   UNL     1      -2.798 -32.143  -8.354  0.00  0.00    +0.000 C 
ATOM     12  C   UNL     1      -4.828 -32.986  -7.722  0.00  0.00    +0.000 C 
ATOM     13  C   UNL     1      -1.007 -36.758  -9.594  0.00  0.00    +0.000 A 
ATOM     14  C   UNL     1      -3.382 -37.818  -8.487  0.00  0.00    +0.000 A 
ATOM     15  C   UNL     1      -1.266 -38.112  -9.585  0.00  0.00    +0.000 A 
ATOM     16  C   UNL     1      -2.420 -38.627  -9.049  0.00  0.00    +0.000 A 
ATOM     17  C   UNL     1      -1.223 -40.262  -9.798  0.00  0.00    +0.000 C 
ENDROOT
BRANCH   8  18
ATOM     18  C   UNL     1      -4.239 -35.647  -6.283  0.00  0.00    +0.000 A 
ATOM     19  C   UNL     1      -5.405 -35.472  -5.517  0.00  0.00    +0.000 A 
ATOM     20  C   UNL     1      -3.046 -35.956  -5.607  0.00  0.00    +0.000 A 
ATOM     21  C   UNL     1      -3.029 -36.108  -4.220  0.00  0.00    +0.000 A 
ATOM     22  C   UNL     1      -5.407 -35.598  -4.120  0.00  0.00    +0.000 A 
ATOM     23  C   UNL     1      -4.209 -35.918  -3.482  0.00  0.00    +0.000 A 
BRANCH  21  24
ATOM     24  O   UNL     1      -1.923 -36.430  -3.467  0.00  0.00    +0.000 OA
ATOM     25  C   UNL     1      -1.385 -37.735  -3.664  0.00  0.00    +0.000 C 
ENDBRANCH  21  24
BRANCH  22  26
ATOM     26  O   UNL     1      -6.642 -35.391  -3.569  0.00  0.00    +0.000 OA
ATOM     27  C   UNL     1      -7.019 -34.057  -3.259  0.00  0.00    +0.000 C 
ENDBRANCH  22  26
BRANCH  23  28
ATOM     28  O   UNL     1      -4.129 -36.075  -2.120  0.00  0.00    +0.000 OA
ATOM     29  H   UNL     1      -3.175 -36.027  -1.917  0.00  0.00    +0.000 HD
ENDBRANCH  23  28
ENDBRANCH   8  18
BRANCH   7  30
ATOM     30  O   UNL     1      -1.916 -33.972 -10.433  0.00  0.00    +0.000 OA
BRANCH  30  34
ATOM     31  O   UNL     1       0.177 -32.948 -10.248  0.00  0.00    +0.000 OA
ATOM     32  O   UNL     1       2.258 -31.113 -12.663  0.00  0.00    +0.000 OA
ATOM     33  O   UNL     1       3.508 -31.454 -10.687  0.00  0.00    +0.000 OA
ATOM     34  C   UNL     1      -0.712 -33.633 -11.132  0.00  0.00    +0.000 C 
ATOM     35  C   UNL     1      -1.125 -32.758 -12.338  0.00  0.00    +0.000 C 
ATOM     36  C   UNL     1       1.052 -31.536 -12.018  0.00  0.00    +0.000 C 
ATOM     37  C   UNL     1       0.106 -32.166 -13.040  0.00  0.00    +0.000 C 
ATOM     38  C   UNL     1       1.368 -32.553 -10.925  0.00  0.00    +0.000 C 
ATOM     39  C   UNL     1       2.361 -31.904  -9.967  0.00  0.00    +0.000 C 
ATOM     40  C   UNL     1       3.151 -30.527 -11.711  0.00  0.00    +0.000 C 
ATOM     41  C   UNL     1       4.417 -30.125 -12.445  0.00  0.00    +0.000 C 
BRANCH  35  42
ATOM     42  O   UNL     1      -1.881 -33.558 -13.263  0.00  0.00    +0.000 OA
ATOM     43  H   UNL     1      -1.230 -34.113 -13.734  0.00  0.00    +0.000 HD
ENDBRANCH  35  42
BRANCH  37  44
ATOM     44  O   UNL     1      -0.297 -31.150 -13.974  0.00  0.00    +0.000 OA
ATOM     45  H   UNL     1       0.494 -30.599 -14.127  0.00  0.00    +0.000 HD
ENDBRANCH  37  44
ENDBRANCH  30  34
ENDBRANCH   7  30
TORSDOF 8
ENDMDL
MODEL 6
REMARK VINA RESULT:      -6.0     20.209     23.426
REMARK  Name = 
REMARK  11 active torsions:
REMARK  status: ('A' for Active; 'I' for Inactive)
REMARK    1  A    between atoms: O_1  and  C_16
REMARK    2  A    between atoms: O_1  and  C_22
REMARK    3  A    between atoms: O_6  and  C_24
REMARK    4  A    between atoms: O_8  and  C_26
REMARK    5  A    between atoms: O_11  and  C_36
REMARK    6  A    between atoms: O_11  and  C_41
REMARK    7  A    between atoms: O_12  and  C_37
REMARK    8  A    between atoms: O_12  and  C_42
REMARK    9  A    between atoms: O_13  and  C_39
REMARK   10  A    between atoms: C_17  and  C_23
REMARK   11  A    between atoms: C_35  and  C_40
REMARK                            x       y       z     vdW  Elec       q    Type
REMARK                         _______ _______ _______ _____ _____    ______ ____
ROOT
ATOM      1  O   UNL     1      -3.967 -15.361 -14.020  0.00  0.00    +0.000 OA
ATOM      2  O   UNL     1      -2.797 -17.154 -13.198  0.00  0.00    +0.000 OA
ATOM      3  O   UNL     1      -7.504 -20.559 -19.608  0.00  0.00    +0.000 OA
ATOM      4  O   UNL     1      -5.758 -22.022 -18.814  0.00  0.00    +0.000 OA
ATOM      5  C   UNL     1      -4.948 -16.365 -15.863  0.00  0.00    +0.000 C 
ATOM      6  C   UNL     1      -4.491 -17.458 -14.917  0.00  0.00    +0.000 C 
ATOM      7  C   UNL     1      -6.175 -16.817 -16.643  0.00  0.00    +0.000 C 
ATOM      8  C   UNL     1      -3.903 -18.637 -15.691  0.00  0.00    +0.000 C 
ATOM      9  C   UNL     1      -5.976 -18.225 -17.201  0.00  0.00    +0.000 A 
ATOM     10  C   UNL     1      -4.939 -19.096 -16.731  0.00  0.00    +0.000 A 
ATOM     11  C   UNL     1      -5.085 -15.205 -14.910  0.00  0.00    +0.000 C 
ATOM     12  C   UNL     1      -3.620 -16.688 -13.969  0.00  0.00    +0.000 C 
ATOM     13  C   UNL     1      -6.873 -18.688 -18.183  0.00  0.00    +0.000 A 
ATOM     14  C   UNL     1      -4.826 -20.401 -17.254  0.00  0.00    +0.000 A 
ATOM     15  C   UNL     1      -6.723 -19.971 -18.663  0.00  0.00    +0.000 A 
ATOM     16  C   UNL     1      -5.730 -20.803 -18.211  0.00  0.00    +0.000 A 
ATOM     17  C   UNL     1      -6.885 -21.860 -19.700  0.00  0.00    +0.000 C 
ENDROOT
BRANCH   8  18
ATOM     18  C   UNL     1      -2.517 -18.388 -16.291  0.00  0.00    +0.000 A 
ATOM     19  C   UNL     1      -2.258 -17.357 -17.211  0.00  0.00    +0.000 A 
ATOM     20  C   UNL     1      -1.446 -19.211 -15.905  0.00  0.00    +0.000 A 
ATOM     21  C   UNL     1      -0.160 -18.993 -16.402  0.00  0.00    +0.000 A 
ATOM     22  C   UNL     1      -0.979 -17.132 -17.741  0.00  0.00    +0.000 A 
ATOM     23  C   UNL     1       0.065 -17.959 -17.326  0.00  0.00    +0.000 A 
BRANCH  21  24
ATOM     24  O   UNL     1       0.957 -19.724 -16.071  0.00  0.00    +0.000 OA
ATOM     25  C   UNL     1       1.252 -19.832 -14.681  0.00  0.00    +0.000 C 
ENDBRANCH  21  24
BRANCH  22  26
ATOM     26  O   UNL     1      -0.943 -16.080 -18.616  0.00  0.00    +0.000 OA
ATOM     27  C   UNL     1      -2.100 -15.264 -18.727  0.00  0.00    +0.000 C 
ENDBRANCH  22  26
BRANCH  23  28
ATOM     28  O   UNL     1       1.348 -17.796 -17.785  0.00  0.00    +0.000 OA
ATOM     29  H   UNL     1       1.306 -18.017 -18.736  0.00  0.00    +0.000 HD
ENDBRANCH  23  28
ENDBRANCH   8  18
BRANCH   7  30
ATOM     30  O   UNL     1      -7.300 -16.881 -15.765  0.00  0.00    +0.000 OA
BRANCH  30  34
ATOM     31  O   UNL     1      -8.377 -14.896 -15.160  0.00  0.00    +0.000 OA
ATOM     32  O   UNL     1     -11.843 -13.735 -15.572  0.00  0.00    +0.000 OA
ATOM     33  O   UNL     1     -10.532 -11.943 -14.764  0.00  0.00    +0.000 OA
ATOM     34  C   UNL     1      -8.339 -15.958 -16.115  0.00  0.00    +0.000 C 
ATOM     35  C   UNL     1      -9.660 -16.761 -16.148  0.00  0.00    +0.000 C 
ATOM     36  C   UNL     1     -10.788 -14.670 -15.319  0.00  0.00    +0.000 C 
ATOM     37  C   UNL     1     -10.870 -15.831 -16.310  0.00  0.00    +0.000 C 
ATOM     38  C   UNL     1      -9.432 -13.983 -15.452  0.00  0.00    +0.000 C 
ATOM     39  C   UNL     1      -9.421 -12.797 -14.494  0.00  0.00    +0.000 C 
ATOM     40  C   UNL     1     -11.770 -12.644 -14.650  0.00  0.00    +0.000 C 
ATOM     41  C   UNL     1     -12.890 -11.676 -14.984  0.00  0.00    +0.000 C 
BRANCH  35  42
ATOM     42  O   UNL     1      -9.612 -17.701 -17.235  0.00  0.00    +0.000 OA
ATOM     43  H   UNL     1      -9.042 -17.296 -17.916  0.00  0.00    +0.000 HD
ENDBRANCH  35  42
BRANCH  37  44
ATOM     44  O   UNL     1     -12.087 -16.554 -16.065  0.00  0.00    +0.000 OA
ATOM     45  H   UNL     1     -12.637 -16.430 -16.862  0.00  0.00    +0.000 HD
ENDBRANCH  37  44
ENDBRANCH  30  34
ENDBRANCH   7  30
TORSDOF 8
ENDMDL
MODEL 7
REMARK VINA RESULT:      -5.8     18.278     21.447
REMARK  Name = 
REMARK  11 active torsions:
REMARK  status: ('A' for Active; 'I' for Inactive)
REMARK    1  A    between atoms: O_1  and  C_16
REMARK    2  A    between atoms: O_1  and  C_22
REMARK    3  A    between atoms: O_6  and  C_24
REMARK    4  A    between atoms: O_8  and  C_26
REMARK    5  A    between atoms: O_11  and  C_36
REMARK    6  A    between atoms: O_11  and  C_41
REMARK    7  A    between atoms: O_12  and  C_37
REMARK    8  A    between atoms: O_12  and  C_42
REMARK    9  A    between atoms: O_13  and  C_39
REMARK   10  A    between atoms: C_17  and  C_23
REMARK   11  A    between atoms: C_35  and  C_40
REMARK                            x       y       z     vdW  Elec       q    Type
REMARK                         _______ _______ _______ _____ _____    ______ ____
ROOT
ATOM      1  O   UNL     1     -15.636 -13.840  -5.816  0.00  0.00    +0.000 OA
ATOM      2  O   UNL     1     -15.795 -14.135  -8.084  0.00  0.00    +0.000 OA
ATOM      3  O   UNL     1     -20.356 -20.735  -4.848  0.00  0.00    +0.000 OA
ATOM      4  O   UNL     1     -20.695 -20.399  -7.213  0.00  0.00    +0.000 OA
ATOM      5  C   UNL     1     -17.104 -15.491  -5.118  0.00  0.00    +0.000 C 
ATOM      6  C   UNL     1     -16.703 -15.789  -6.550  0.00  0.00    +0.000 C 
ATOM      7  C   UNL     1     -17.403 -16.784  -4.371  0.00  0.00    +0.000 C 
ATOM      8  C   UNL     1     -17.898 -16.299  -7.355  0.00  0.00    +0.000 C 
ATOM      9  C   UNL     1     -18.303 -17.697  -5.203  0.00  0.00    +0.000 A 
ATOM     10  C   UNL     1     -18.507 -17.498  -6.608  0.00  0.00    +0.000 A 
ATOM     11  C   UNL     1     -15.936 -14.650  -4.667  0.00  0.00    +0.000 C 
ATOM     12  C   UNL     1     -16.038 -14.505  -6.948  0.00  0.00    +0.000 C 
ATOM     13  C   UNL     1     -18.917 -18.791  -4.564  0.00  0.00    +0.000 A 
ATOM     14  C   UNL     1     -19.316 -18.395  -7.334  0.00  0.00    +0.000 A 
ATOM     15  C   UNL     1     -19.699 -19.641  -5.317  0.00  0.00    +0.000 A 
ATOM     16  C   UNL     1     -19.892 -19.449  -6.662  0.00  0.00    +0.000 A 
ATOM     17  C   UNL     1     -20.987 -21.210  -6.056  0.00  0.00    +0.000 C 
ENDROOT
BRANCH   8  18
ATOM     18  C   UNL     1     -18.931 -15.231  -7.722  0.00  0.00    +0.000 A 
ATOM     19  C   UNL     1     -19.774 -14.627  -6.773  0.00  0.00    +0.000 A 
ATOM     20  C   UNL     1     -19.044 -14.819  -9.060  0.00  0.00    +0.000 A 
ATOM     21  C   UNL     1     -19.948 -13.822  -9.428  0.00  0.00    +0.000 A 
ATOM     22  C   UNL     1     -20.706 -13.639  -7.122  0.00  0.00    +0.000 A 
ATOM     23  C   UNL     1     -20.783 -13.243  -8.458  0.00  0.00    +0.000 A 
BRANCH  21  24
ATOM     24  O   UNL     1     -20.120 -13.332 -10.703  0.00  0.00    +0.000 OA
ATOM     25  C   UNL     1     -19.037 -12.577 -11.240  0.00  0.00    +0.000 C 
ENDBRANCH  21  24
BRANCH  22  26
ATOM     26  O   UNL     1     -21.425 -13.181  -6.051  0.00  0.00    +0.000 OA
ATOM     27  C   UNL     1     -20.740 -12.986  -4.822  0.00  0.00    +0.000 C 
ENDBRANCH  22  26
BRANCH  23  28
ATOM     28  O   UNL     1     -21.657 -12.272  -8.880  0.00  0.00    +0.000 OA
ATOM     29  H   UNL     1     -21.128 -11.695  -9.464  0.00  0.00    +0.000 HD
ENDBRANCH  23  28
ENDBRANCH   8  18
BRANCH   7  30
ATOM     30  O   UNL     1     -16.186 -17.499  -4.151  0.00  0.00    +0.000 OA
BRANCH  30  34
ATOM     31  O   UNL     1     -16.054 -16.766  -1.935  0.00  0.00    +0.000 OA
ATOM     32  O   UNL     1     -14.213 -18.033   0.986  0.00  0.00    +0.000 OA
ATOM     33  O   UNL     1     -15.678 -16.319   1.695  0.00  0.00    +0.000 OA
ATOM     34  C   UNL     1     -16.015 -17.910  -2.790  0.00  0.00    +0.000 C 
ATOM     35  C   UNL     1     -14.659 -18.650  -2.712  0.00  0.00    +0.000 C 
ATOM     36  C   UNL     1     -14.436 -17.705  -0.390  0.00  0.00    +0.000 C 
ATOM     37  C   UNL     1     -14.276 -18.954  -1.257  0.00  0.00    +0.000 C 
ATOM     38  C   UNL     1     -15.839 -17.134  -0.576  0.00  0.00    +0.000 C 
ATOM     39  C   UNL     1     -15.973 -15.933   0.353  0.00  0.00    +0.000 C 
ATOM     40  C   UNL     1     -14.366 -16.869   1.804  0.00  0.00    +0.000 C 
ATOM     41  C   UNL     1     -14.147 -17.281   3.248  0.00  0.00    +0.000 C 
BRANCH  35  42
ATOM     42  O   UNL     1     -14.745 -19.872  -3.464  0.00  0.00    +0.000 OA
ATOM     43  H   UNL     1     -14.681 -20.595  -2.810  0.00  0.00    +0.000 HD
ENDBRANCH  35  42
BRANCH  37  44
ATOM     44  O   UNL     1     -12.908 -19.387  -1.184  0.00  0.00    +0.000 OA
ATOM     45  H   UNL     1     -12.792 -20.030  -1.909  0.00  0.00    +0.000 HD
ENDBRANCH  37  44
ENDBRANCH  30  34
ENDBRANCH   7  30
TORSDOF 8
ENDMDL
MODEL 8
REMARK VINA RESULT:      -5.7     18.986     21.493
REMARK  Name = 
REMARK  11 active torsions:
REMARK  status: ('A' for Active; 'I' for Inactive)
REMARK    1  A    between atoms: O_1  and  C_16
REMARK    2  A    between atoms: O_1  and  C_22
REMARK    3  A    between atoms: O_6  and  C_24
REMARK    4  A    between atoms: O_8  and  C_26
REMARK    5  A    between atoms: O_11  and  C_36
REMARK    6  A    between atoms: O_11  and  C_41
REMARK    7  A    between atoms: O_12  and  C_37
REMARK    8  A    between atoms: O_12  and  C_42
REMARK    9  A    between atoms: O_13  and  C_39
REMARK   10  A    between atoms: C_17  and  C_23
REMARK   11  A    between atoms: C_35  and  C_40
REMARK                            x       y       z     vdW  Elec       q    Type
REMARK                         _______ _______ _______ _____ _____    ______ ____
ROOT
ATOM      1  O   UNL     1     -16.850 -13.340  -6.806  0.00  0.00    +0.000 OA
ATOM      2  O   UNL     1     -18.669 -12.434  -5.744  0.00  0.00    +0.000 OA
ATOM      3  O   UNL     1     -20.490 -20.886  -6.044  0.00  0.00    +0.000 OA
ATOM      4  O   UNL     1     -21.925 -19.644  -4.555  0.00  0.00    +0.000 OA
ATOM      5  C   UNL     1     -17.356 -15.588  -6.567  0.00  0.00    +0.000 C 
ATOM      6  C   UNL     1     -18.627 -14.791  -6.342  0.00  0.00    +0.000 C 
ATOM      7  C   UNL     1     -17.685 -16.954  -7.156  0.00  0.00    +0.000 C 
ATOM      8  C   UNL     1     -19.449 -15.389  -5.201  0.00  0.00    +0.000 C 
ATOM      9  C   UNL     1     -18.832 -17.614  -6.392  0.00  0.00    +0.000 A 
ATOM     10  C   UNL     1     -19.685 -16.879  -5.505  0.00  0.00    +0.000 A 
ATOM     11  C   UNL     1     -16.557 -14.617  -7.398  0.00  0.00    +0.000 C 
ATOM     12  C   UNL     1     -18.086 -13.399  -6.211  0.00  0.00    +0.000 C 
ATOM     13  C   UNL     1     -19.073 -18.985  -6.603  0.00  0.00    +0.000 A 
ATOM     14  C   UNL     1     -20.754 -17.530  -4.856  0.00  0.00    +0.000 A 
ATOM     15  C   UNL     1     -20.130 -19.578  -5.946  0.00  0.00    +0.000 A 
ATOM     16  C   UNL     1     -20.946 -18.872  -5.099  0.00  0.00    +0.000 A 
ATOM     17  C   UNL     1     -21.628 -20.921  -5.158  0.00  0.00    +0.000 C 
ENDROOT
BRANCH   8  18
ATOM     18  C   UNL     1     -18.884 -15.144  -3.800  0.00  0.00    +0.000 A 
ATOM     19  C   UNL     1     -17.926 -15.985  -3.206  0.00  0.00    +0.000 A 
ATOM     20  C   UNL     1     -19.323 -14.027  -3.070  0.00  0.00    +0.000 A 
ATOM     21  C   UNL     1     -18.804 -13.749  -1.805  0.00  0.00    +0.000 A 
ATOM     22  C   UNL     1     -17.406 -15.739  -1.927  0.00  0.00    +0.000 A 
ATOM     23  C   UNL     1     -17.853 -14.613  -1.235  0.00  0.00    +0.000 A 
BRANCH  21  24
ATOM     24  O   UNL     1     -19.149 -12.673  -1.020  0.00  0.00    +0.000 OA
ATOM     25  C   UNL     1     -20.539 -12.373  -0.935  0.00  0.00    +0.000 C 
ENDBRANCH  21  24
BRANCH  22  26
ATOM     26  O   UNL     1     -16.486 -16.674  -1.537  0.00  0.00    +0.000 OA
ATOM     27  C   UNL     1     -15.431 -16.988  -2.434  0.00  0.00    +0.000 C 
ENDBRANCH  22  26
BRANCH  23  28
ATOM     28  O   UNL     1     -17.384 -14.293   0.014  0.00  0.00    +0.000 OA
ATOM     29  H   UNL     1     -17.870 -13.484   0.266  0.00  0.00    +0.000 HD
ENDBRANCH  23  28
ENDBRANCH   8  18
BRANCH   7  30
ATOM     30  O   UNL     1     -18.130 -16.796  -8.504  0.00  0.00    +0.000 OA
BRANCH  30  34
ATOM     31  O   UNL     1     -17.371 -15.824 -10.490  0.00  0.00    +0.000 OA
ATOM     32  O   UNL     1     -15.217 -17.078 -13.195  0.00  0.00    +0.000 OA
ATOM     33  O   UNL     1     -15.618 -14.776 -13.547  0.00  0.00    +0.000 OA
ATOM     34  C   UNL     1     -17.054 -16.750  -9.449  0.00  0.00    +0.000 C 
ATOM     35  C   UNL     1     -16.864 -18.188  -9.984  0.00  0.00    +0.000 C 
ATOM     36  C   UNL     1     -16.224 -17.136 -12.179  0.00  0.00    +0.000 C 
ATOM     37  C   UNL     1     -15.873 -18.216 -11.156  0.00  0.00    +0.000 C 
ATOM     38  C   UNL     1     -16.341 -15.788 -11.474  0.00  0.00    +0.000 C 
ATOM     39  C   UNL     1     -16.627 -14.735 -12.539  0.00  0.00    +0.000 C 
ATOM     40  C   UNL     1     -15.537 -16.065 -14.153  0.00  0.00    +0.000 C 
ATOM     41  C   UNL     1     -14.424 -16.031 -15.185  0.00  0.00    +0.000 C 
BRANCH  35  42
ATOM     42  O   UNL     1     -16.390 -19.028  -8.918  0.00  0.00    +0.000 OA
ATOM     43  H   UNL     1     -15.479 -19.285  -9.163  0.00  0.00    +0.000 HD
ENDBRANCH  35  42
BRANCH  37  44
ATOM     44  O   UNL     1     -15.916 -19.495 -11.811  0.00  0.00    +0.000 OA
ATOM     45  H   UNL     1     -15.914 -20.161 -11.098  0.00  0.00    +0.000 HD
ENDBRANCH  37  44
ENDBRANCH  30  34
ENDBRANCH   7  30
TORSDOF 8
ENDMDL
MODEL 9
REMARK VINA RESULT:      -5.7      4.373      7.406
REMARK  Name = 
REMARK  11 active torsions:
REMARK  status: ('A' for Active; 'I' for Inactive)
REMARK    1  A    between atoms: O_1  and  C_16
REMARK    2  A    between atoms: O_1  and  C_22
REMARK    3  A    between atoms: O_6  and  C_24
REMARK    4  A    between atoms: O_8  and  C_26
REMARK    5  A    between atoms: O_11  and  C_36
REMARK    6  A    between atoms: O_11  and  C_41
REMARK    7  A    between atoms: O_12  and  C_37
REMARK    8  A    between atoms: O_12  and  C_42
REMARK    9  A    between atoms: O_13  and  C_39
REMARK   10  A    between atoms: C_17  and  C_23
REMARK   11  A    between atoms: C_35  and  C_40
REMARK                            x       y       z     vdW  Elec       q    Type
REMARK                         _______ _______ _______ _____ _____    ______ ____
ROOT
ATOM      1  O   UNL     1      -5.283 -37.876  -1.737  0.00  0.00    +0.000 OA
ATOM      2  O   UNL     1      -5.973 -35.924  -0.754  0.00  0.00    +0.000 OA
ATOM      3  O   UNL     1      -2.837 -33.355  -8.396  0.00  0.00    +0.000 OA
ATOM      4  O   UNL     1      -4.122 -31.657  -7.263  0.00  0.00    +0.000 OA
ATOM      5  C   UNL     1      -4.734 -37.066  -3.837  0.00  0.00    +0.000 C 
ATOM      6  C   UNL     1      -4.789 -35.893  -2.877  0.00  0.00    +0.000 C 
ATOM      7  C   UNL     1      -3.722 -36.799  -4.944  0.00  0.00    +0.000 C 
ATOM      8  C   UNL     1      -5.427 -34.675  -3.543  0.00  0.00    +0.000 C 
ATOM      9  C   UNL     1      -3.905 -35.396  -5.521  0.00  0.00    +0.000 A 
ATOM     10  C   UNL     1      -4.669 -34.386  -4.850  0.00  0.00    +0.000 A 
ATOM     11  C   UNL     1      -4.475 -38.202  -2.881  0.00  0.00    +0.000 C 
ATOM     12  C   UNL     1      -5.450 -36.514  -1.684  0.00  0.00    +0.000 C 
ATOM     13  C   UNL     1      -3.263 -35.084  -6.734  0.00  0.00    +0.000 A 
ATOM     14  C   UNL     1      -4.772 -33.095  -5.408  0.00  0.00    +0.000 A 
ATOM     15  C   UNL     1      -3.392 -33.808  -7.240  0.00  0.00    +0.000 A 
ATOM     16  C   UNL     1      -4.123 -32.842  -6.596  0.00  0.00    +0.000 A 
ATOM     17  C   UNL     1      -3.305 -31.990  -8.405  0.00  0.00    +0.000 C 
ENDROOT
BRANCH   8  18
ATOM     18  C   UNL     1      -6.943 -34.765  -3.735  0.00  0.00    +0.000 A 
ATOM     19  C   UNL     1      -7.856 -34.042  -2.946  0.00  0.00    +0.000 A 
ATOM     20  C   UNL     1      -7.458 -35.593  -4.747  0.00  0.00    +0.000 A 
ATOM     21  C   UNL     1      -8.832 -35.673  -4.976  0.00  0.00    +0.000 A 
ATOM     22  C   UNL     1      -9.242 -34.123  -3.144  0.00  0.00    +0.000 A 
ATOM     23  C   UNL     1      -9.719 -34.944  -4.166  0.00  0.00    +0.000 A 
BRANCH  21  24
ATOM     24  O   UNL     1      -9.434 -36.433  -5.952  0.00  0.00    +0.000 OA
ATOM     25  C   UNL     1      -8.662 -37.507  -6.483  0.00  0.00    +0.000 C 
ENDBRANCH  21  24
BRANCH  22  26
ATOM     26  O   UNL     1      -9.951 -33.340  -2.274  0.00  0.00    +0.000 OA
ATOM     27  C   UNL     1      -9.318 -32.182  -1.750  0.00  0.00    +0.000 C 
ENDBRANCH  22  26
BRANCH  23  28
ATOM     28  O   UNL     1     -11.059 -35.068  -4.435  0.00  0.00    +0.000 OA
ATOM     29  H   UNL     1     -11.328 -35.898  -3.996  0.00  0.00    +0.000 HD
ENDBRANCH  23  28
ENDBRANCH   8  18
BRANCH   7  30
ATOM     30  O   UNL     1      -2.401 -36.850  -4.404  0.00  0.00    +0.000 OA
BRANCH  30  34
ATOM     31  O   UNL     1      -0.993 -38.246  -3.165  0.00  0.00    +0.000 OA
ATOM     32  O   UNL     1       0.992 -41.204  -4.081  0.00  0.00    +0.000 OA
ATOM     33  O   UNL     1       1.054 -40.944  -1.733  0.00  0.00    +0.000 OA
ATOM     34  C   UNL     1      -1.902 -38.186  -4.266  0.00  0.00    +0.000 C 
ATOM     35  C   UNL     1      -1.222 -38.552  -5.605  0.00  0.00    +0.000 C 
ATOM     36  C   UNL     1       0.406 -39.908  -4.247  0.00  0.00    +0.000 C 
ATOM     37  C   UNL     1      -0.471 -39.887  -5.499  0.00  0.00    +0.000 C 
ATOM     38  C   UNL     1      -0.440 -39.552  -3.028  0.00  0.00    +0.000 C 
ATOM     39  C   UNL     1       0.459 -39.649  -1.800  0.00  0.00    +0.000 C 
ATOM     40  C   UNL     1       1.811 -41.232  -2.909  0.00  0.00    +0.000 C 
ATOM     41  C   UNL     1       2.379 -42.632  -2.770  0.00  0.00    +0.000 C 
BRANCH  35  42
ATOM     42  O   UNL     1      -2.222 -38.631  -6.635  0.00  0.00    +0.000 OA
ATOM     43  H   UNL     1      -1.909 -38.056  -7.359  0.00  0.00    +0.000 HD
ENDBRANCH  35  42
BRANCH  37  44
ATOM     44  O   UNL     1       0.371 -40.075  -6.647  0.00  0.00    +0.000 OA
ATOM     45  H   UNL     1      -0.231 -40.137  -7.413  0.00  0.00    +0.000 HD
ENDBRANCH  37  44
ENDBRANCH  30  34
ENDBRANCH   7  30
TORSDOF 8
ENDMDL
