MODEL 1
REMARK VINA RESULT:      -6.7      0.000      0.000
REMARK  Name = Foretinib.pdbqt.pdb
REMARK  11 active torsions:
REMARK  status: ('A' for Active; 'I' for Inactive)
REMARK    1  A    between atoms: C_2  and  N_31
REMARK    2  A    between atoms: C_7  and  O_8
REMARK    3  A    between atoms: O_8  and  C_9
REMARK    4  A    between atoms: C_17  and  O_19
REMARK    5  A    between atoms: C_18  and  O_29
REMARK    6  A    between atoms: O_19  and  C_20
REMARK    7  A    between atoms: C_21  and  C_22
REMARK    8  A    between atoms: C_22  and  N_23
REMARK    9  A    between atoms: C_32  and  C_35
REMARK   10  A    between atoms: C_35  and  C_38
REMARK   11  A    between atoms: N_40  and  C_42
REMARK                            x       y       z     vdW  Elec       q    Type
REMARK                         _______ _______ _______ _____ _____    ______ ____
ROOT
ATOM      1  F   UNL     1      -2.221 -35.473  -5.351  0.00  0.00    +0.000 F 
ATOM      2  C   UNL     1      -5.002 -35.462  -3.021  0.00  0.00    +0.000 A 
ATOM      3  C   UNL     1      -3.701 -35.525  -3.520  0.00  0.00    +0.000 A 
ATOM      4  C   UNL     1      -6.068 -35.255  -3.900  0.00  0.00    +0.000 A 
ATOM      5  C   UNL     1      -3.474 -35.376  -4.885  0.00  0.00    +0.000 A 
ATOM      6  C   UNL     1      -5.840 -35.107  -5.267  0.00  0.00    +0.000 A 
ATOM      7  C   UNL     1      -4.537 -35.143  -5.758  0.00  0.00    +0.000 A 
ENDROOT
BRANCH   2   8
ATOM      8  N   UNL     1      -5.303 -35.606  -1.654  0.00  0.00    +0.000 N 
ATOM      9  C   UNL     1      -6.041 -36.638  -1.097  0.00  0.00    +0.000 C 
ATOM     10  O   UNL     1      -6.564 -37.563  -1.705  0.00  0.00    +0.000 OA
ATOM     11  H   UNL     1      -4.982 -34.866  -1.036  0.00  0.00    +0.000 HD
BRANCH   9  12
ATOM     12  C   UNL     1      -6.233 -36.536   0.388  0.00  0.00    +0.000 C 
ATOM     13  C   UNL     1      -5.108 -36.893   1.244  0.00  0.00    +0.000 C 
ATOM     14  C   UNL     1      -6.295 -37.781   1.145  0.00  0.00    +0.000 C 
BRANCH  12  15
ATOM     15  C   UNL     1      -7.097 -35.393   0.831  0.00  0.00    +0.000 C 
ATOM     16  O   UNL     1      -7.222 -35.178   2.031  0.00  0.00    +0.000 OA
ATOM     17  N   UNL     1      -7.642 -34.644  -0.198  0.00  0.00    +0.000 N 
ATOM     18  H   UNL     1      -7.408 -34.904  -1.151  0.00  0.00    +0.000 HD
BRANCH  17  19
ATOM     19  C   UNL     1      -8.471 -33.519  -0.037  0.00  0.00    +0.000 A 
ATOM     20  C   UNL     1      -7.888 -32.257  -0.170  0.00  0.00    +0.000 A 
ATOM     21  C   UNL     1      -8.657 -31.105  -0.022  0.00  0.00    +0.000 A 
ATOM     22  C   UNL     1     -10.014 -31.224   0.258  0.00  0.00    +0.000 A 
ATOM     23  F   UNL     1     -10.756 -30.118   0.398  0.00  0.00    +0.000 F 
ATOM     24  C   UNL     1     -10.612 -32.472   0.390  0.00  0.00    +0.000 A 
ATOM     25  C   UNL     1      -9.836 -33.618   0.242  0.00  0.00    +0.000 A 
ENDBRANCH  17  19
ENDBRANCH  12  15
ENDBRANCH   9  12
ENDBRANCH   2   8
BRANCH   7  26
ATOM     26  O   UNL     1      -4.378 -35.057  -7.119  0.00  0.00    +0.000 OA
BRANCH  26  27
ATOM     27  C   UNL     1      -3.900 -33.863  -7.624  0.00  0.00    +0.000 A 
ATOM     28  C   UNL     1      -2.826 -33.910  -8.527  0.00  0.00    +0.000 A 
ATOM     29  C   UNL     1      -2.382 -32.697  -9.081  0.00  0.00    +0.000 A 
ATOM     30  C   UNL     1      -2.191 -35.111  -8.881  0.00  0.00    +0.000 A 
ATOM     31  N   UNL     1      -2.954 -31.520  -8.783  0.00  0.00    +0.000 NA
ATOM     32  C   UNL     1      -1.316 -32.737  -9.968  0.00  0.00    +0.000 A 
ATOM     33  C   UNL     1      -3.994 -31.519  -7.920  0.00  0.00    +0.000 A 
ATOM     34  C   UNL     1      -4.510 -32.651  -7.324  0.00  0.00    +0.000 A 
ATOM     35  C   UNL     1      -0.679 -33.932 -10.326  0.00  0.00    +0.000 A 
ATOM     36  C   UNL     1      -1.120 -35.136  -9.775  0.00  0.00    +0.000 A 
BRANCH  36  37
ATOM     37  O   UNL     1      -0.457 -36.280 -10.153  0.00  0.00    +0.000 OA
ATOM     38  C   UNL     1      -0.707 -37.413  -9.367  0.00  0.00    +0.000 C 
ENDBRANCH  36  37
BRANCH  35  39
ATOM     39  O   UNL     1       0.381 -33.988 -11.200  0.00  0.00    +0.000 OA
BRANCH  39  40
ATOM     40  C   UNL     1       1.497 -33.404 -10.769  0.00  0.00    +0.000 C 
ATOM     41  C   UNL     1       2.773 -32.727 -10.259  0.00  0.00    +0.000 C 
BRANCH  41  42
ATOM     42  C   UNL     1       4.048 -32.052  -9.742  0.00  0.00    +0.000 C 
BRANCH  42  43
ATOM     43  N   UNL     1       5.259 -31.409  -9.250  0.00  0.00    +0.000 N 
ATOM     44  C   UNL     1       4.828 -30.392  -8.243  0.00  0.00    +0.000 C 
ATOM     45  C   UNL     1       5.024 -30.403  -6.692  0.00  0.00    +0.000 C 
ATOM     46  O   UNL     1       5.590 -31.259  -5.812  0.00  0.00    +0.000 OA
ATOM     47  C   UNL     1       5.973 -32.180  -6.719  0.00  0.00    +0.000 C 
ATOM     48  C   UNL     1       5.876 -32.349  -8.266  0.00  0.00    +0.000 C 
ENDBRANCH  42  43
ENDBRANCH  41  42
ENDBRANCH  39  40
ENDBRANCH  35  39
ENDBRANCH  26  27
ENDBRANCH   7  26
TORSDOF 11
ENDMDL
MODEL 2
REMARK VINA RESULT:      -6.5      4.197      6.688
REMARK  Name = Foretinib.pdbqt.pdb
REMARK  11 active torsions:
REMARK  status: ('A' for Active; 'I' for Inactive)
REMARK    1  A    between atoms: C_2  and  N_31
REMARK    2  A    between atoms: C_7  and  O_8
REMARK    3  A    between atoms: O_8  and  C_9
REMARK    4  A    between atoms: C_17  and  O_19
REMARK    5  A    between atoms: C_18  and  O_29
REMARK    6  A    between atoms: O_19  and  C_20
REMARK    7  A    between atoms: C_21  and  C_22
REMARK    8  A    between atoms: C_22  and  N_23
REMARK    9  A    between atoms: C_32  and  C_35
REMARK   10  A    between atoms: C_35  and  C_38
REMARK   11  A    between atoms: N_40  and  C_42
REMARK                            x       y       z     vdW  Elec       q    Type
REMARK                         _______ _______ _______ _____ _____    ______ ____
ROOT
ATOM      1  F   UNL     1       0.400 -35.910 -10.336  0.00  0.00    +0.000 F 
ATOM      2  C   UNL     1      -2.617 -34.364  -9.041  0.00  0.00    +0.000 A 
ATOM      3  C   UNL     1      -1.608 -35.301  -9.266  0.00  0.00    +0.000 A 
ATOM      4  C   UNL     1      -2.550 -33.116  -9.664  0.00  0.00    +0.000 A 
ATOM      5  C   UNL     1      -0.543 -34.985 -10.104  0.00  0.00    +0.000 A 
ATOM      6  C   UNL     1      -1.483 -32.801 -10.504  0.00  0.00    +0.000 A 
ATOM      7  C   UNL     1      -0.464 -33.729 -10.706  0.00  0.00    +0.000 A 
ENDROOT
BRANCH   2   8
ATOM      8  N   UNL     1      -3.722 -34.618  -8.207  0.00  0.00    +0.000 N 
ATOM      9  C   UNL     1      -3.752 -34.436  -6.835  0.00  0.00    +0.000 C 
ATOM     10  O   UNL     1      -2.823 -34.054  -6.135  0.00  0.00    +0.000 OA
ATOM     11  H   UNL     1      -4.550 -35.005  -8.652  0.00  0.00    +0.000 HD
BRANCH   9  12
ATOM     12  C   UNL     1      -5.053 -34.808  -6.185  0.00  0.00    +0.000 C 
ATOM     13  C   UNL     1      -5.229 -36.193  -5.762  0.00  0.00    +0.000 C 
ATOM     14  C   UNL     1      -5.961 -35.663  -6.941  0.00  0.00    +0.000 C 
BRANCH  12  15
ATOM     15  C   UNL     1      -5.645 -33.743  -5.312  0.00  0.00    +0.000 C 
ATOM     16  O   UNL     1      -5.538 -32.570  -5.655  0.00  0.00    +0.000 OA
ATOM     17  N   UNL     1      -6.319 -34.213  -4.198  0.00  0.00    +0.000 N 
ATOM     18  H   UNL     1      -6.377 -35.218  -4.067  0.00  0.00    +0.000 HD
BRANCH  17  19
ATOM     19  C   UNL     1      -6.968 -33.414  -3.239  0.00  0.00    +0.000 A 
ATOM     20  C   UNL     1      -6.350 -33.260  -1.996  0.00  0.00    +0.000 A 
ATOM     21  C   UNL     1      -6.944 -32.481  -1.005  0.00  0.00    +0.000 A 
ATOM     22  C   UNL     1      -8.159 -31.858  -1.267  0.00  0.00    +0.000 A 
ATOM     23  F   UNL     1      -8.730 -31.106  -0.316  0.00  0.00    +0.000 F 
ATOM     24  C   UNL     1      -8.787 -31.998  -2.499  0.00  0.00    +0.000 A 
ATOM     25  C   UNL     1      -8.187 -32.779  -3.483  0.00  0.00    +0.000 A 
ENDBRANCH  17  19
ENDBRANCH  12  15
ENDBRANCH   9  12
ENDBRANCH   2   8
BRANCH   7  26
ATOM     26  O   UNL     1       0.527 -33.388 -11.593  0.00  0.00    +0.000 OA
BRANCH  26  27
ATOM     27  C   UNL     1       1.444 -32.441 -11.182  0.00  0.00    +0.000 A 
ATOM     28  C   UNL     1       1.797 -31.426 -12.086  0.00  0.00    +0.000 A 
ATOM     29  C   UNL     1       2.687 -30.434 -11.642  0.00  0.00    +0.000 A 
ATOM     30  C   UNL     1       1.301 -31.380 -13.398  0.00  0.00    +0.000 A 
ATOM     31  N   UNL     1       3.189 -30.424 -10.397  0.00  0.00    +0.000 NA
ATOM     32  C   UNL     1       3.045 -29.433 -12.533  0.00  0.00    +0.000 A 
ATOM     33  C   UNL     1       2.814 -31.411  -9.552  0.00  0.00    +0.000 A 
ATOM     34  C   UNL     1       1.945 -32.430  -9.885  0.00  0.00    +0.000 A 
ATOM     35  C   UNL     1       2.552 -29.380 -13.843  0.00  0.00    +0.000 A 
ATOM     36  C   UNL     1       1.669 -30.367 -14.284  0.00  0.00    +0.000 A 
BRANCH  36  37
ATOM     37  O   UNL     1       1.220 -30.274 -15.580  0.00  0.00    +0.000 OA
ATOM     38  C   UNL     1      -0.098 -29.825 -15.734  0.00  0.00    +0.000 C 
ENDBRANCH  36  37
BRANCH  35  39
ATOM     39  O   UNL     1       2.901 -28.398 -14.740  0.00  0.00    +0.000 OA
BRANCH  39  40
ATOM     40  C   UNL     1       3.558 -27.365 -14.217  0.00  0.00    +0.000 C 
ATOM     41  C   UNL     1       4.328 -26.188 -13.609  0.00  0.00    +0.000 C 
BRANCH  41  42
ATOM     42  C   UNL     1       5.103 -25.012 -13.004  0.00  0.00    +0.000 C 
BRANCH  42  43
ATOM     43  N   UNL     1       5.840 -23.895 -12.431  0.00  0.00    +0.000 N 
ATOM     44  C   UNL     1       4.982 -23.323 -11.348  0.00  0.00    +0.000 C 
ATOM     45  C   UNL     1       5.195 -23.370  -9.800  0.00  0.00    +0.000 C 
ATOM     46  O   UNL     1       6.134 -23.899  -8.986  0.00  0.00    +0.000 OA
ATOM     47  C   UNL     1       6.906 -24.421  -9.961  0.00  0.00    +0.000 C 
ATOM     48  C   UNL     1       6.869 -24.480 -11.519  0.00  0.00    +0.000 C 
ENDBRANCH  42  43
ENDBRANCH  41  42
ENDBRANCH  39  40
ENDBRANCH  35  39
ENDBRANCH  26  27
ENDBRANCH   7  26
TORSDOF 11
ENDMDL
MODEL 3
REMARK VINA RESULT:      -6.5     14.025     18.241
REMARK  Name = Foretinib.pdbqt.pdb
REMARK  11 active torsions:
REMARK  status: ('A' for Active; 'I' for Inactive)
REMARK    1  A    between atoms: C_2  and  N_31
REMARK    2  A    between atoms: C_7  and  O_8
REMARK    3  A    between atoms: O_8  and  C_9
REMARK    4  A    between atoms: C_17  and  O_19
REMARK    5  A    between atoms: C_18  and  O_29
REMARK    6  A    between atoms: O_19  and  C_20
REMARK    7  A    between atoms: C_21  and  C_22
REMARK    8  A    between atoms: C_22  and  N_23
REMARK    9  A    between atoms: C_32  and  C_35
REMARK   10  A    between atoms: C_35  and  C_38
REMARK   11  A    between atoms: N_40  and  C_42
REMARK                            x       y       z     vdW  Elec       q    Type
REMARK                         _______ _______ _______ _____ _____    ______ ____
ROOT
ATOM      1  F   UNL     1      -3.941 -19.343 -20.820  0.00  0.00    +0.000 F 
ATOM      2  C   UNL     1      -5.907 -21.257 -18.447  0.00  0.00    +0.000 A 
ATOM      3  C   UNL     1      -5.391 -20.785 -19.654  0.00  0.00    +0.000 A 
ATOM      4  C   UNL     1      -5.426 -20.737 -17.242  0.00  0.00    +0.000 A 
ATOM      5  C   UNL     1      -4.401 -19.808 -19.650  0.00  0.00    +0.000 A 
ATOM      6  C   UNL     1      -4.435 -19.757 -17.239  0.00  0.00    +0.000 A 
ATOM      7  C   UNL     1      -3.904 -19.308 -18.446  0.00  0.00    +0.000 A 
ENDROOT
BRANCH   2   8
ATOM      8  N   UNL     1      -6.909 -22.242 -18.378  0.00  0.00    +0.000 N 
ATOM      9  C   UNL     1      -6.777 -23.553 -18.805  0.00  0.00    +0.000 C 
ATOM     10  O   UNL     1      -5.787 -24.049 -19.327  0.00  0.00    +0.000 OA
ATOM     11  H   UNL     1      -7.814 -21.949 -18.022  0.00  0.00    +0.000 HD
BRANCH   9  12
ATOM     12  C   UNL     1      -8.012 -24.390 -18.638  0.00  0.00    +0.000 C 
ATOM     13  C   UNL     1      -8.544 -25.059 -19.820  0.00  0.00    +0.000 C 
ATOM     14  C   UNL     1      -9.247 -23.890 -19.231  0.00  0.00    +0.000 C 
BRANCH  12  15
ATOM     15  C   UNL     1      -8.100 -25.126 -17.335  0.00  0.00    +0.000 C 
ATOM     16  O   UNL     1      -8.900 -24.739 -16.490  0.00  0.00    +0.000 OA
ATOM     17  N   UNL     1      -7.277 -26.234 -17.237  0.00  0.00    +0.000 N 
ATOM     18  H   UNL     1      -6.702 -26.472 -18.040  0.00  0.00    +0.000 HD
BRANCH  17  19
ATOM     19  C   UNL     1      -7.190 -27.091 -16.125  0.00  0.00    +0.000 A 
ATOM     20  C   UNL     1      -5.938 -27.255 -15.527  0.00  0.00    +0.000 A 
ATOM     21  C   UNL     1      -5.787 -28.090 -14.423  0.00  0.00    +0.000 A 
ATOM     22  C   UNL     1      -6.897 -28.759 -13.920  0.00  0.00    +0.000 A 
ATOM     23  F   UNL     1      -6.756 -29.561 -12.856  0.00  0.00    +0.000 F 
ATOM     24  C   UNL     1      -8.151 -28.607 -14.500  0.00  0.00    +0.000 A 
ATOM     25  C   UNL     1      -8.293 -27.771 -15.604  0.00  0.00    +0.000 A 
ENDBRANCH  17  19
ENDBRANCH  12  15
ENDBRANCH   9  12
ENDBRANCH   2   8
BRANCH   7  26
ATOM     26  O   UNL     1      -2.977 -18.297 -18.385  0.00  0.00    +0.000 OA
BRANCH  26  27
ATOM     27  C   UNL     1      -1.714 -18.624 -17.930  0.00  0.00    +0.000 A 
ATOM     28  C   UNL     1      -1.363 -18.247 -16.625  0.00  0.00    +0.000 A 
ATOM     29  C   UNL     1      -0.098 -18.632 -16.149  0.00  0.00    +0.000 A 
ATOM     30  C   UNL     1      -2.221 -17.504 -15.798  0.00  0.00    +0.000 A 
ATOM     31  N   UNL     1       0.761 -19.348 -16.892  0.00  0.00    +0.000 NA
ATOM     32  C   UNL     1       0.257 -18.256 -14.862  0.00  0.00    +0.000 A 
ATOM     33  C   UNL     1       0.380 -19.702 -18.140  0.00  0.00    +0.000 A 
ATOM     34  C   UNL     1      -0.838 -19.380 -18.701  0.00  0.00    +0.000 A 
ATOM     35  C   UNL     1      -0.594 -17.516 -14.032  0.00  0.00    +0.000 A 
ATOM     36  C   UNL     1      -1.850 -17.133 -14.505  0.00  0.00    +0.000 A 
BRANCH  36  37
ATOM     37  O   UNL     1      -2.646 -16.402 -13.655  0.00  0.00    +0.000 OA
ATOM     38  C   UNL     1      -3.811 -15.869 -14.222  0.00  0.00    +0.000 C 
ENDBRANCH  36  37
BRANCH  35  39
ATOM     39  O   UNL     1      -0.256 -17.131 -12.756  0.00  0.00    +0.000 OA
BRANCH  39  40
ATOM     40  C   UNL     1       0.806 -17.750 -12.245  0.00  0.00    +0.000 C 
ATOM     41  C   UNL     1       2.040 -18.453 -11.668  0.00  0.00    +0.000 C 
BRANCH  41  42
ATOM     42  C   UNL     1       3.276 -19.151 -11.091  0.00  0.00    +0.000 C 
BRANCH  42  43
ATOM     43  N   UNL     1       4.450 -19.814 -10.542  0.00  0.00    +0.000 N 
ATOM     44  C   UNL     1       4.843 -20.875 -11.519  0.00  0.00    +0.000 C 
ATOM     45  C   UNL     1       6.093 -20.932 -12.455  0.00  0.00    +0.000 C 
ATOM     46  O   UNL     1       7.146 -20.116 -12.685  0.00  0.00    +0.000 OA
ATOM     47  C   UNL     1       6.790 -19.156 -11.808  0.00  0.00    +0.000 C 
ATOM     48  C   UNL     1       5.615 -18.919 -10.810  0.00  0.00    +0.000 C 
ENDBRANCH  42  43
ENDBRANCH  41  42
ENDBRANCH  39  40
ENDBRANCH  35  39
ENDBRANCH  26  27
ENDBRANCH   7  26
TORSDOF 11
ENDMDL
MODEL 4
REMARK VINA RESULT:      -6.4     17.850     23.060
REMARK  Name = Foretinib.pdbqt.pdb
REMARK  11 active torsions:
REMARK  status: ('A' for Active; 'I' for Inactive)
REMARK    1  A    between atoms: C_2  and  N_31
REMARK    2  A    between atoms: C_7  and  O_8
REMARK    3  A    between atoms: O_8  and  C_9
REMARK    4  A    between atoms: C_17  and  O_19
REMARK    5  A    between atoms: C_18  and  O_29
REMARK    6  A    between atoms: O_19  and  C_20
REMARK    7  A    between atoms: C_21  and  C_22
REMARK    8  A    between atoms: C_22  and  N_23
REMARK    9  A    between atoms: C_32  and  C_35
REMARK   10  A    between atoms: C_35  and  C_38
REMARK   11  A    between atoms: N_40  and  C_42
REMARK                            x       y       z     vdW  Elec       q    Type
REMARK                         _______ _______ _______ _____ _____    ______ ____
ROOT
ATOM      1  F   UNL     1      -3.528 -14.999 -14.080  0.00  0.00    +0.000 F 
ATOM      2  C   UNL     1      -1.047 -17.602 -14.563  0.00  0.00    +0.000 A 
ATOM      3  C   UNL     1      -1.763 -16.555 -13.983  0.00  0.00    +0.000 A 
ATOM      4  C   UNL     1      -1.448 -18.108 -15.802  0.00  0.00    +0.000 A 
ATOM      5  C   UNL     1      -2.871 -16.028 -14.637  0.00  0.00    +0.000 A 
ATOM      6  C   UNL     1      -2.557 -17.577 -16.458  0.00  0.00    +0.000 A 
ATOM      7  C   UNL     1      -3.286 -16.551 -15.862  0.00  0.00    +0.000 A 
ENDROOT
BRANCH   2   8
ATOM      8  N   UNL     1       0.084 -18.182 -13.957  0.00  0.00    +0.000 N 
ATOM      9  C   UNL     1       0.483 -19.501 -14.096  0.00  0.00    +0.000 C 
ATOM     10  O   UNL     1      -0.094 -20.367 -14.741  0.00  0.00    +0.000 OA
ATOM     11  H   UNL     1       0.624 -17.586 -13.336  0.00  0.00    +0.000 HD
BRANCH   9  12
ATOM     12  C   UNL     1       1.714 -19.864 -13.320  0.00  0.00    +0.000 C 
ATOM     13  C   UNL     1       2.883 -20.310 -14.070  0.00  0.00    +0.000 C 
ATOM     14  C   UNL     1       2.085 -21.274 -13.268  0.00  0.00    +0.000 C 
BRANCH  12  15
ATOM     15  C   UNL     1       1.960 -19.022 -12.103  0.00  0.00    +0.000 C 
ATOM     16  O   UNL     1       1.275 -19.213 -11.105  0.00  0.00    +0.000 OA
ATOM     17  N   UNL     1       3.005 -18.122 -12.222  0.00  0.00    +0.000 N 
ATOM     18  H   UNL     1       3.526 -18.110 -13.093  0.00  0.00    +0.000 HD
BRANCH  17  19
ATOM     19  C   UNL     1       3.436 -17.236 -11.218  0.00  0.00    +0.000 A 
ATOM     20  C   UNL     1       4.527 -17.622 -10.436  0.00  0.00    +0.000 A 
ATOM     21  C   UNL     1       5.001 -16.788  -9.425  0.00  0.00    +0.000 A 
ATOM     22  C   UNL     1       4.378 -15.565  -9.205  0.00  0.00    +0.000 A 
ATOM     23  F   UNL     1       4.834 -14.760  -8.236  0.00  0.00    +0.000 F 
ATOM     24  C   UNL     1       3.293 -15.163  -9.975  0.00  0.00    +0.000 A 
ATOM     25  C   UNL     1       2.825 -16.003 -10.982  0.00  0.00    +0.000 A 
ENDBRANCH  17  19
ENDBRANCH  12  15
ENDBRANCH   9  12
ENDBRANCH   2   8
BRANCH   7  26
ATOM     26  O   UNL     1      -4.330 -16.024 -16.583  0.00  0.00    +0.000 OA
BRANCH  26  27
ATOM     27  C   UNL     1      -5.605 -16.419 -16.227  0.00  0.00    +0.000 A 
ATOM     28  C   UNL     1      -6.497 -15.437 -15.768  0.00  0.00    +0.000 A 
ATOM     29  C   UNL     1      -7.809 -15.836 -15.462  0.00  0.00    +0.000 A 
ATOM     30  C   UNL     1      -6.121 -14.095 -15.602  0.00  0.00    +0.000 A 
ATOM     31  N   UNL     1      -8.227 -17.104 -15.606  0.00  0.00    +0.000 NA
ATOM     32  C   UNL     1      -8.693 -14.872 -15.000  0.00  0.00    +0.000 A 
ATOM     33  C   UNL     1      -7.341 -18.017 -16.064  0.00  0.00    +0.000 A 
ATOM     34  C   UNL     1      -6.033 -17.731 -16.396  0.00  0.00    +0.000 A 
ATOM     35  C   UNL     1      -8.325 -13.531 -14.834  0.00  0.00    +0.000 A 
ATOM     36  C   UNL     1      -7.021 -13.135 -15.137  0.00  0.00    +0.000 A 
BRANCH  36  37
ATOM     37  O   UNL     1      -6.707 -11.810 -14.950  0.00  0.00    +0.000 OA
ATOM     38  C   UNL     1      -5.448 -11.558 -14.388  0.00  0.00    +0.000 C 
ENDBRANCH  36  37
BRANCH  35  39
ATOM     39  O   UNL     1      -9.187 -12.564 -14.374  0.00  0.00    +0.000 OA
BRANCH  39  40
ATOM     40  C   UNL     1     -10.479 -12.836 -14.541  0.00  0.00    +0.000 C 
ATOM     41  C   UNL     1     -11.971 -13.135 -14.725  0.00  0.00    +0.000 C 
BRANCH  41  42
ATOM     42  C   UNL     1     -13.464 -13.427 -14.910  0.00  0.00    +0.000 C 
BRANCH  42  43
ATOM     43  N   UNL     1     -14.882 -13.705 -15.084  0.00  0.00    +0.000 N 
ATOM     44  C   UNL     1     -15.010 -15.179 -15.297  0.00  0.00    +0.000 C 
ATOM     45  C   UNL     1     -15.615 -16.259 -14.343  0.00  0.00    +0.000 C 
ATOM     46  O   UNL     1     -16.171 -16.234 -13.112  0.00  0.00    +0.000 OA
ATOM     47  C   UNL     1     -16.052 -14.906 -12.916  0.00  0.00    +0.000 C 
ATOM     48  C   UNL     1     -15.494 -13.693 -13.721  0.00  0.00    +0.000 C 
ENDBRANCH  42  43
ENDBRANCH  41  42
ENDBRANCH  39  40
ENDBRANCH  35  39
ENDBRANCH  26  27
ENDBRANCH   7  26
TORSDOF 11
ENDMDL
MODEL 5
REMARK VINA RESULT:      -6.1      4.856      8.905
REMARK  Name = Foretinib.pdbqt.pdb
REMARK  11 active torsions:
REMARK  status: ('A' for Active; 'I' for Inactive)
REMARK    1  A    between atoms: C_2  and  N_31
REMARK    2  A    between atoms: C_7  and  O_8
REMARK    3  A    between atoms: O_8  and  C_9
REMARK    4  A    between atoms: C_17  and  O_19
REMARK    5  A    between atoms: C_18  and  O_29
REMARK    6  A    between atoms: O_19  and  C_20
REMARK    7  A    between atoms: C_21  and  C_22
REMARK    8  A    between atoms: C_22  and  N_23
REMARK    9  A    between atoms: C_32  and  C_35
REMARK   10  A    between atoms: C_35  and  C_38
REMARK   11  A    between atoms: N_40  and  C_42
REMARK                            x       y       z     vdW  Elec       q    Type
REMARK                         _______ _______ _______ _____ _____    ______ ____
ROOT
ATOM      1  F   UNL     1       2.726 -34.122 -10.290  0.00  0.00    +0.000 F 
ATOM      2  C   UNL     1      -0.761 -33.182 -10.636  0.00  0.00    +0.000 A 
ATOM      3  C   UNL     1       0.386 -33.870 -10.239  0.00  0.00    +0.000 A 
ATOM      4  C   UNL     1      -0.640 -32.054 -11.451  0.00  0.00    +0.000 A 
ATOM      5  C   UNL     1       1.638 -33.428 -10.653  0.00  0.00    +0.000 A 
ATOM      6  C   UNL     1       0.615 -31.613 -11.867  0.00  0.00    +0.000 A 
ATOM      7  C   UNL     1       1.759 -32.287 -11.447  0.00  0.00    +0.000 A 
ENDROOT
BRANCH   2   8
ATOM      8  N   UNL     1      -2.057 -33.575 -10.255  0.00  0.00    +0.000 N 
ATOM      9  C   UNL     1      -2.599 -34.838 -10.432  0.00  0.00    +0.000 C 
ATOM     10  O   UNL     1      -2.049 -35.792 -10.966  0.00  0.00    +0.000 OA
ATOM     11  H   UNL     1      -2.653 -32.856  -9.853  0.00  0.00    +0.000 HD
BRANCH   9  12
ATOM     12  C   UNL     1      -4.015 -34.980  -9.955  0.00  0.00    +0.000 C 
ATOM     13  C   UNL     1      -4.937 -35.747 -10.786  0.00  0.00    +0.000 C 
ATOM     14  C   UNL     1      -5.049 -34.268 -10.697  0.00  0.00    +0.000 C 
BRANCH  12  15
ATOM     15  C   UNL     1      -4.167 -35.103  -8.468  0.00  0.00    +0.000 C 
ATOM     16  O   UNL     1      -5.292 -35.058  -7.984  0.00  0.00    +0.000 OA
ATOM     17  N   UNL     1      -2.985 -35.312  -7.779  0.00  0.00    +0.000 N 
ATOM     18  H   UNL     1      -2.127 -35.383  -8.317  0.00  0.00    +0.000 HD
BRANCH  17  19
ATOM     19  C   UNL     1      -2.870 -35.471  -6.386  0.00  0.00    +0.000 A 
ATOM     20  C   UNL     1      -2.870 -34.318  -5.598  0.00  0.00    +0.000 A 
ATOM     21  C   UNL     1      -2.759 -34.410  -4.212  0.00  0.00    +0.000 A 
ATOM     22  C   UNL     1      -2.649 -35.663  -3.621  0.00  0.00    +0.000 A 
ATOM     23  F   UNL     1      -2.544 -35.755  -2.289  0.00  0.00    +0.000 F 
ATOM     24  C   UNL     1      -2.649 -36.822  -4.389  0.00  0.00    +0.000 A 
ATOM     25  C   UNL     1      -2.760 -36.721  -5.773  0.00  0.00    +0.000 A 
ENDBRANCH  17  19
ENDBRANCH  12  15
ENDBRANCH   9  12
ENDBRANCH   2   8
BRANCH   7  26
ATOM     26  O   UNL     1       2.963 -31.846 -11.940  0.00  0.00    +0.000 OA
BRANCH  26  27
ATOM     27  C   UNL     1       3.419 -30.622 -11.490  0.00  0.00    +0.000 A 
ATOM     28  C   UNL     1       4.299 -30.606 -10.396  0.00  0.00    +0.000 A 
ATOM     29  C   UNL     1       4.804 -29.362  -9.979  0.00  0.00    +0.000 A 
ATOM     30  C   UNL     1       4.677 -31.774  -9.716  0.00  0.00    +0.000 A 
ATOM     31  N   UNL     1       4.482 -28.214 -10.595  0.00  0.00    +0.000 NA
ATOM     32  C   UNL     1       5.668 -29.340  -8.895  0.00  0.00    +0.000 A 
ATOM     33  C   UNL     1       3.641 -28.273 -11.653  0.00  0.00    +0.000 A 
ATOM     34  C   UNL     1       3.093 -29.440 -12.145  0.00  0.00    +0.000 A 
ATOM     35  C   UNL     1       6.050 -30.502  -8.213  0.00  0.00    +0.000 A 
ATOM     36  C   UNL     1       5.548 -31.736  -8.626  0.00  0.00    +0.000 A 
BRANCH  36  37
ATOM     37  O   UNL     1       5.947 -32.846  -7.919  0.00  0.00    +0.000 OA
ATOM     38  C   UNL     1       6.438 -33.910  -8.687  0.00  0.00    +0.000 C 
ENDBRANCH  36  37
BRANCH  35  39
ATOM     39  O   UNL     1       6.902 -30.496  -7.133  0.00  0.00    +0.000 OA
BRANCH  39  40
ATOM     40  C   UNL     1       6.708 -29.503  -6.268  0.00  0.00    +0.000 C 
ATOM     41  C   UNL     1       6.471 -28.370  -5.264  0.00  0.00    +0.000 C 
BRANCH  41  42
ATOM     42  C   UNL     1       6.235 -27.241  -4.255  0.00  0.00    +0.000 C 
BRANCH  42  43
ATOM     43  N   UNL     1       6.012 -26.167  -3.297  0.00  0.00    +0.000 N 
ATOM     44  C   UNL     1       6.736 -24.967  -3.818  0.00  0.00    +0.000 C 
ATOM     45  C   UNL     1       6.146 -23.643  -4.403  0.00  0.00    +0.000 C 
ATOM     46  O   UNL     1       4.899 -23.176  -4.625  0.00  0.00    +0.000 OA
ATOM     47  C   UNL     1       4.244 -24.260  -4.161  0.00  0.00    +0.000 C 
ATOM     48  C   UNL     1       4.638 -25.640  -3.553  0.00  0.00    +0.000 C 
ENDBRANCH  42  43
ENDBRANCH  41  42
ENDBRANCH  39  40
ENDBRANCH  35  39
ENDBRANCH  26  27
ENDBRANCH   7  26
TORSDOF 11
ENDMDL
MODEL 6
REMARK VINA RESULT:      -6.1      9.800     13.943
REMARK  Name = Foretinib.pdbqt.pdb
REMARK  11 active torsions:
REMARK  status: ('A' for Active; 'I' for Inactive)
REMARK    1  A    between atoms: C_2  and  N_31
REMARK    2  A    between atoms: C_7  and  O_8
REMARK    3  A    between atoms: O_8  and  C_9
REMARK    4  A    between atoms: C_17  and  O_19
REMARK    5  A    between atoms: C_18  and  O_29
REMARK    6  A    between atoms: O_19  and  C_20
REMARK    7  A    between atoms: C_21  and  C_22
REMARK    8  A    between atoms: C_22  and  N_23
REMARK    9  A    between atoms: C_32  and  C_35
REMARK   10  A    between atoms: C_35  and  C_38
REMARK   11  A    between atoms: N_40  and  C_42
REMARK                            x       y       z     vdW  Elec       q    Type
REMARK                         _______ _______ _______ _____ _____    ______ ____
ROOT
ATOM      1  F   UNL     1       6.616 -23.140   0.365  0.00  0.00    +0.000 F 
ATOM      2  C   UNL     1       3.767 -21.334  -0.973  0.00  0.00    +0.000 A 
ATOM      3  C   UNL     1       4.936 -21.614  -0.265  0.00  0.00    +0.000 A 
ATOM      4  C   UNL     1       3.181 -22.331  -1.756  0.00  0.00    +0.000 A 
ATOM      5  C   UNL     1       5.511 -22.879  -0.349  0.00  0.00    +0.000 A 
ATOM      6  C   UNL     1       3.756 -23.598  -1.838  0.00  0.00    +0.000 A 
ATOM      7  C   UNL     1       4.938 -23.865  -1.152  0.00  0.00    +0.000 A 
ENDROOT
BRANCH   2   8
ATOM      8  N   UNL     1       3.133 -20.079  -0.933  0.00  0.00    +0.000 N 
ATOM      9  C   UNL     1       1.941 -19.800  -0.284  0.00  0.00    +0.000 C 
ATOM     10  O   UNL     1       1.247 -20.602   0.329  0.00  0.00    +0.000 OA
ATOM     11  H   UNL     1       3.572 -19.329  -1.459  0.00  0.00    +0.000 HD
BRANCH   9  12
ATOM     12  C   UNL     1       1.475 -18.381  -0.420  0.00  0.00    +0.000 C 
ATOM     13  C   UNL     1       2.332 -17.451  -1.146  0.00  0.00    +0.000 C 
ATOM     14  C   UNL     1       2.197 -17.360   0.331  0.00  0.00    +0.000 C 
BRANCH  12  15
ATOM     15  C   UNL     1      -0.007 -18.221  -0.586  0.00  0.00    +0.000 C 
ATOM     16  O   UNL     1      -0.441 -17.818  -1.660  0.00  0.00    +0.000 OA
ATOM     17  N   UNL     1      -0.760 -18.605   0.510  0.00  0.00    +0.000 N 
ATOM     18  H   UNL     1      -0.268 -18.975   1.318  0.00  0.00    +0.000 HD
BRANCH  17  19
ATOM     19  C   UNL     1      -2.163 -18.562   0.593  0.00  0.00    +0.000 A 
ATOM     20  C   UNL     1      -2.805 -17.408   0.140  0.00  0.00    +0.000 A 
ATOM     21  C   UNL     1      -4.194 -17.305   0.195  0.00  0.00    +0.000 A 
ATOM     22  C   UNL     1      -4.934 -18.365   0.705  0.00  0.00    +0.000 A 
ATOM     23  F   UNL     1      -6.269 -18.270   0.757  0.00  0.00    +0.000 F 
ATOM     24  C   UNL     1      -4.312 -19.523   1.158  0.00  0.00    +0.000 A 
ATOM     25  C   UNL     1      -2.924 -19.617   1.100  0.00  0.00    +0.000 A 
ENDBRANCH  17  19
ENDBRANCH  12  15
ENDBRANCH   9  12
ENDBRANCH   2   8
BRANCH   7  26
ATOM     26  O   UNL     1       5.424 -25.148  -1.217  0.00  0.00    +0.000 OA
BRANCH  26  27
ATOM     27  C   UNL     1       6.016 -25.539  -2.402  0.00  0.00    +0.000 A 
ATOM     28  C   UNL     1       5.737 -26.826  -2.888  0.00  0.00    +0.000 A 
ATOM     29  C   UNL     1       6.298 -27.196  -4.123  0.00  0.00    +0.000 A 
ATOM     30  C   UNL     1       4.934 -27.739  -2.186  0.00  0.00    +0.000 A 
ATOM     31  N   UNL     1       7.068 -26.363  -4.840  0.00  0.00    +0.000 NA
ATOM     32  C   UNL     1       6.031 -28.469  -4.604  0.00  0.00    +0.000 A 
ATOM     33  C   UNL     1       7.303 -25.128  -4.344  0.00  0.00    +0.000 A 
ATOM     34  C   UNL     1       6.799 -24.663  -3.147  0.00  0.00    +0.000 A 
ATOM     35  C   UNL     1       5.229 -29.384  -3.910  0.00  0.00    +0.000 A 
ATOM     36  C   UNL     1       4.674 -29.016  -2.684  0.00  0.00    +0.000 A 
BRANCH  36  37
ATOM     37  O   UNL     1       3.901 -29.952  -2.038  0.00  0.00    +0.000 OA
ATOM     38  C   UNL     1       4.412 -30.427  -0.822  0.00  0.00    +0.000 C 
ENDBRANCH  36  37
BRANCH  35  39
ATOM     39  O   UNL     1       4.959 -30.651  -4.371  0.00  0.00    +0.000 OA
BRANCH  39  40
ATOM     40  C   UNL     1       4.519 -30.711  -5.626  0.00  0.00    +0.000 C 
ATOM     41  C   UNL     1       4.027 -30.772  -7.076  0.00  0.00    +0.000 C 
BRANCH  41  42
ATOM     42  C   UNL     1       3.541 -30.835  -8.528  0.00  0.00    +0.000 C 
BRANCH  42  43
ATOM     43  N   UNL     1       3.081 -30.894  -9.908  0.00  0.00    +0.000 N 
ATOM     44  C   UNL     1       4.146 -31.596 -10.688  0.00  0.00    +0.000 C 
ATOM     45  C   UNL     1       4.111 -33.019 -11.334  0.00  0.00    +0.000 C 
ATOM     46  O   UNL     1       3.196 -34.011 -11.398  0.00  0.00    +0.000 OA
ATOM     47  C   UNL     1       2.237 -33.382 -10.689  0.00  0.00    +0.000 C 
ATOM     48  C   UNL     1       2.081 -32.002  -9.981  0.00  0.00    +0.000 C 
ENDBRANCH  42  43
ENDBRANCH  41  42
ENDBRANCH  39  40
ENDBRANCH  35  39
ENDBRANCH  26  27
ENDBRANCH   7  26
TORSDOF 11
ENDMDL
MODEL 7
REMARK VINA RESULT:      -6.0     18.837     22.143
REMARK  Name = Foretinib.pdbqt.pdb
REMARK  11 active torsions:
REMARK  status: ('A' for Active; 'I' for Inactive)
REMARK    1  A    between atoms: C_2  and  N_31
REMARK    2  A    between atoms: C_7  and  O_8
REMARK    3  A    between atoms: O_8  and  C_9
REMARK    4  A    between atoms: C_17  and  O_19
REMARK    5  A    between atoms: C_18  and  O_29
REMARK    6  A    between atoms: O_19  and  C_20
REMARK    7  A    between atoms: C_21  and  C_22
REMARK    8  A    between atoms: C_22  and  N_23
REMARK    9  A    between atoms: C_32  and  C_35
REMARK   10  A    between atoms: C_35  and  C_38
REMARK   11  A    between atoms: N_40  and  C_42
REMARK                            x       y       z     vdW  Elec       q    Type
REMARK                         _______ _______ _______ _____ _____    ______ ____
ROOT
ATOM      1  F   UNL     1      -2.509 -16.752 -13.615  0.00  0.00    +0.000 F 
ATOM      2  C   UNL     1       1.010 -17.597 -13.350  0.00  0.00    +0.000 A 
ATOM      3  C   UNL     1      -0.281 -17.202 -12.998  0.00  0.00    +0.000 A 
ATOM      4  C   UNL     1       1.287 -17.948 -14.673  0.00  0.00    +0.000 A 
ATOM      5  C   UNL     1      -1.282 -17.166 -13.964  0.00  0.00    +0.000 A 
ATOM      6  C   UNL     1       0.284 -17.911 -15.640  0.00  0.00    +0.000 A 
ATOM      7  C   UNL     1      -1.010 -17.542 -15.280  0.00  0.00    +0.000 A 
ENDROOT
BRANCH   2   8
ATOM      8  N   UNL     1       2.069 -17.654 -12.425  0.00  0.00    +0.000 N 
ATOM      9  C   UNL     1       2.798 -16.568 -11.969  0.00  0.00    +0.000 C 
ATOM     10  O   UNL     1       2.654 -15.403 -12.317  0.00  0.00    +0.000 OA
ATOM     11  H   UNL     1       2.341 -18.577 -12.099  0.00  0.00    +0.000 HD
BRANCH   9  12
ATOM     12  C   UNL     1       3.891 -16.913 -11.001  0.00  0.00    +0.000 C 
ATOM     13  C   UNL     1       5.061 -17.614 -11.519  0.00  0.00    +0.000 C 
ATOM     14  C   UNL     1       4.071 -18.321 -10.665  0.00  0.00    +0.000 C 
BRANCH  12  15
ATOM     15  C   UNL     1       4.122 -15.894  -9.926  0.00  0.00    +0.000 C 
ATOM     16  O   UNL     1       5.268 -15.519  -9.704  0.00  0.00    +0.000 OA
ATOM     17  N   UNL     1       2.973 -15.428  -9.310  0.00  0.00    +0.000 N 
ATOM     18  H   UNL     1       2.081 -15.788  -9.635  0.00  0.00    +0.000 HD
BRANCH  17  19
ATOM     19  C   UNL     1       2.929 -14.464  -8.287  0.00  0.00    +0.000 A 
ATOM     20  C   UNL     1       2.620 -13.150  -8.646  0.00  0.00    +0.000 A 
ATOM     21  C   UNL     1       2.561 -12.150  -7.678  0.00  0.00    +0.000 A 
ATOM     22  C   UNL     1       2.812 -12.474  -6.349  0.00  0.00    +0.000 A 
ATOM     23  F   UNL     1       2.753 -11.515  -5.416  0.00  0.00    +0.000 F 
ATOM     24  C   UNL     1       3.118 -13.777  -5.973  0.00  0.00    +0.000 A 
ATOM     25  C   UNL     1       3.176 -14.770  -6.947  0.00  0.00    +0.000 A 
ENDBRANCH  17  19
ENDBRANCH  12  15
ENDBRANCH   9  12
ENDBRANCH   2   8
BRANCH   7  26
ATOM     26  O   UNL     1      -1.941 -17.461 -16.286  0.00  0.00    +0.000 OA
BRANCH  26  27
ATOM     27  C   UNL     1      -2.893 -18.460 -16.347  0.00  0.00    +0.000 A 
ATOM     28  C   UNL     1      -4.234 -18.111 -16.124  0.00  0.00    +0.000 A 
ATOM     29  C   UNL     1      -5.203 -19.122 -16.244  0.00  0.00    +0.000 A 
ATOM     30  C   UNL     1      -4.626 -16.807 -15.783  0.00  0.00    +0.000 A 
ATOM     31  N   UNL     1      -4.887 -20.384 -16.572  0.00  0.00    +0.000 NA
ATOM     32  C   UNL     1      -6.529 -18.784 -16.017  0.00  0.00    +0.000 A 
ATOM     33  C   UNL     1      -3.586 -20.677 -16.792  0.00  0.00    +0.000 A 
ATOM     34  C   UNL     1      -2.558 -19.761 -16.705  0.00  0.00    +0.000 A 
ATOM     35  C   UNL     1      -6.928 -17.485 -15.679  0.00  0.00    +0.000 A 
ATOM     36  C   UNL     1      -5.965 -16.481 -15.559  0.00  0.00    +0.000 A 
BRANCH  36  37
ATOM     37  O   UNL     1      -6.406 -15.225 -15.217  0.00  0.00    +0.000 OA
ATOM     38  C   UNL     1      -5.695 -14.158 -15.784  0.00  0.00    +0.000 C 
ENDBRANCH  36  37
BRANCH  35  39
ATOM     39  O   UNL     1      -8.237 -17.134 -15.446  0.00  0.00    +0.000 OA
BRANCH  39  40
ATOM     40  C   UNL     1      -9.079 -17.413 -16.438  0.00  0.00    +0.000 C 
ATOM     41  C   UNL     1     -10.038 -17.748 -17.586  0.00  0.00    +0.000 C 
BRANCH  41  42
ATOM     42  C   UNL     1     -10.997 -18.089 -18.731  0.00  0.00    +0.000 C 
BRANCH  42  43
ATOM     43  N   UNL     1     -11.908 -18.414 -19.820  0.00  0.00    +0.000 N 
ATOM     44  C   UNL     1     -11.900 -17.245 -20.752  0.00  0.00    +0.000 C 
ATOM     45  C   UNL     1     -11.304 -17.145 -22.193  0.00  0.00    +0.000 C 
ATOM     46  O   UNL     1     -10.647 -17.996 -23.011  0.00  0.00    +0.000 OA
ATOM     47  C   UNL     1     -10.648 -19.049 -22.169  0.00  0.00    +0.000 C 
ATOM     48  C   UNL     1     -11.176 -19.343 -20.731  0.00  0.00    +0.000 C 
ENDBRANCH  42  43
ENDBRANCH  41  42
ENDBRANCH  39  40
ENDBRANCH  35  39
ENDBRANCH  26  27
ENDBRANCH   7  26
TORSDOF 11
ENDMDL
MODEL 8
REMARK VINA RESULT:      -5.9      9.951     16.015
REMARK  Name = Foretinib.pdbqt.pdb
REMARK  11 active torsions:
REMARK  status: ('A' for Active; 'I' for Inactive)
REMARK    1  A    between atoms: C_2  and  N_31
REMARK    2  A    between atoms: C_7  and  O_8
REMARK    3  A    between atoms: O_8  and  C_9
REMARK    4  A    between atoms: C_17  and  O_19
REMARK    5  A    between atoms: C_18  and  O_29
REMARK    6  A    between atoms: O_19  and  C_20
REMARK    7  A    between atoms: C_21  and  C_22
REMARK    8  A    between atoms: C_22  and  N_23
REMARK    9  A    between atoms: C_32  and  C_35
REMARK   10  A    between atoms: C_35  and  C_38
REMARK   11  A    between atoms: N_40  and  C_42
REMARK                            x       y       z     vdW  Elec       q    Type
REMARK                         _______ _______ _______ _____ _____    ______ ____
ROOT
ATOM      1  F   UNL     1     -13.780 -26.974   6.850  0.00  0.00    +0.000 F 
ATOM      2  C   UNL     1     -12.798 -24.417   4.471  0.00  0.00    +0.000 A 
ATOM      3  C   UNL     1     -13.213 -25.026   5.656  0.00  0.00    +0.000 A 
ATOM      4  C   UNL     1     -12.527 -25.205   3.350  0.00  0.00    +0.000 A 
ATOM      5  C   UNL     1     -13.348 -26.409   5.713  0.00  0.00    +0.000 A 
ATOM      6  C   UNL     1     -12.663 -26.591   3.408  0.00  0.00    +0.000 A 
ATOM      7  C   UNL     1     -13.051 -27.197   4.601  0.00  0.00    +0.000 A 
ENDROOT
BRANCH   2   8
ATOM      8  N   UNL     1     -12.642 -23.024   4.343  0.00  0.00    +0.000 N 
ATOM      9  C   UNL     1     -13.549 -22.166   3.743  0.00  0.00    +0.000 C 
ATOM     10  O   UNL     1     -14.606 -22.485   3.213  0.00  0.00    +0.000 OA
ATOM     11  H   UNL     1     -11.771 -22.629   4.686  0.00  0.00    +0.000 HD
BRANCH   9  12
ATOM     12  C   UNL     1     -13.124 -20.727   3.720  0.00  0.00    +0.000 C 
ATOM     13  C   UNL     1     -11.736 -20.424   4.054  0.00  0.00    +0.000 C 
ATOM     14  C   UNL     1     -12.832 -20.092   5.000  0.00  0.00    +0.000 C 
BRANCH  12  15
ATOM     15  C   UNL     1     -13.769 -19.899   2.649  0.00  0.00    +0.000 C 
ATOM     16  O   UNL     1     -14.457 -18.940   2.979  0.00  0.00    +0.000 OA
ATOM     17  N   UNL     1     -13.469 -20.287   1.355  0.00  0.00    +0.000 N 
ATOM     18  H   UNL     1     -12.836 -21.072   1.229  0.00  0.00    +0.000 HD
BRANCH  17  19
ATOM     19  C   UNL     1     -13.939 -19.663   0.186  0.00  0.00    +0.000 A 
ATOM     20  C   UNL     1     -13.031 -18.904  -0.556  0.00  0.00    +0.000 A 
ATOM     21  C   UNL     1     -13.436 -18.261  -1.723  0.00  0.00    +0.000 A 
ATOM     22  C   UNL     1     -14.756 -18.384  -2.144  0.00  0.00    +0.000 A 
ATOM     23  F   UNL     1     -15.147 -17.769  -3.268  0.00  0.00    +0.000 F 
ATOM     24  C   UNL     1     -15.673 -19.137  -1.420  0.00  0.00    +0.000 A 
ATOM     25  C   UNL     1     -15.260 -19.775  -0.254  0.00  0.00    +0.000 A 
ENDBRANCH  17  19
ENDBRANCH  12  15
ENDBRANCH   9  12
ENDBRANCH   2   8
BRANCH   7  26
ATOM     26  O   UNL     1     -13.232 -28.558   4.582  0.00  0.00    +0.000 OA
BRANCH  26  27
ATOM     27  C   UNL     1     -12.097 -29.345   4.592  0.00  0.00    +0.000 A 
ATOM     28  C   UNL     1     -11.908 -30.247   3.533  0.00  0.00    +0.000 A 
ATOM     29  C   UNL     1     -10.724 -31.004   3.521  0.00  0.00    +0.000 A 
ATOM     30  C   UNL     1     -12.853 -30.416   2.509  0.00  0.00    +0.000 A 
ATOM     31  N   UNL     1      -9.783 -30.881   4.470  0.00  0.00    +0.000 NA
ATOM     32  C   UNL     1     -10.535 -31.902   2.481  0.00  0.00    +0.000 A 
ATOM     33  C   UNL     1      -9.997 -29.993   5.466  0.00  0.00    +0.000 A 
ATOM     34  C   UNL     1     -11.120 -29.199   5.571  0.00  0.00    +0.000 A 
ATOM     35  C   UNL     1     -11.473 -32.074   1.455  0.00  0.00    +0.000 A 
ATOM     36  C   UNL     1     -12.649 -31.322   1.468  0.00  0.00    +0.000 A 
BRANCH  36  37
ATOM     37  O   UNL     1     -13.542 -31.533   0.443  0.00  0.00    +0.000 OA
ATOM     38  C   UNL     1     -14.773 -32.089   0.816  0.00  0.00    +0.000 C 
ENDBRANCH  36  37
BRANCH  35  39
ATOM     39  O   UNL     1     -11.304 -32.963   0.419  0.00  0.00    +0.000 OA
BRANCH  39  40
ATOM     40  C   UNL     1     -10.158 -33.639   0.440  0.00  0.00    +0.000 C 
ATOM     41  C   UNL     1      -8.841 -34.423   0.448  0.00  0.00    +0.000 C 
BRANCH  41  42
ATOM     42  C   UNL     1      -7.523 -35.205   0.449  0.00  0.00    +0.000 C 
BRANCH  42  43
ATOM     43  N   UNL     1      -6.270 -35.946   0.451  0.00  0.00    +0.000 N 
ATOM     44  C   UNL     1      -5.984 -36.307   1.873  0.00  0.00    +0.000 C 
ATOM     45  C   UNL     1      -6.025 -37.713   2.555  0.00  0.00    +0.000 C 
ATOM     46  O   UNL     1      -6.311 -38.965   2.135  0.00  0.00    +0.000 OA
ATOM     47  C   UNL     1      -6.575 -38.640   0.853  0.00  0.00    +0.000 C 
ATOM     48  C   UNL     1      -6.590 -37.334   0.001  0.00  0.00    +0.000 C 
ENDBRANCH  42  43
ENDBRANCH  41  42
ENDBRANCH  39  40
ENDBRANCH  35  39
ENDBRANCH  26  27
ENDBRANCH   7  26
TORSDOF 11
ENDMDL
MODEL 9
REMARK VINA RESULT:      -5.9      8.809     14.092
REMARK  Name = Foretinib.pdbqt.pdb
REMARK  11 active torsions:
REMARK  status: ('A' for Active; 'I' for Inactive)
REMARK    1  A    between atoms: C_2  and  N_31
REMARK    2  A    between atoms: C_7  and  O_8
REMARK    3  A    between atoms: O_8  and  C_9
REMARK    4  A    between atoms: C_17  and  O_19
REMARK    5  A    between atoms: C_18  and  O_29
REMARK    6  A    between atoms: O_19  and  C_20
REMARK    7  A    between atoms: C_21  and  C_22
REMARK    8  A    between atoms: C_22  and  N_23
REMARK    9  A    between atoms: C_32  and  C_35
REMARK   10  A    between atoms: C_35  and  C_38
REMARK   11  A    between atoms: N_40  and  C_42
REMARK                            x       y       z     vdW  Elec       q    Type
REMARK                         _______ _______ _______ _____ _____    ______ ____
ROOT
ATOM      1  F   UNL     1      -2.040 -30.643 -18.344  0.00  0.00    +0.000 F 
ATOM      2  C   UNL     1      -4.246 -28.302 -16.665  0.00  0.00    +0.000 A 
ATOM      3  C   UNL     1      -3.804 -29.337 -17.489  0.00  0.00    +0.000 A 
ATOM      4  C   UNL     1      -3.326 -27.604 -15.881  0.00  0.00    +0.000 A 
ATOM      5  C   UNL     1      -2.453 -29.668 -17.520  0.00  0.00    +0.000 A 
ATOM      6  C   UNL     1      -1.972 -27.935 -15.913  0.00  0.00    +0.000 A 
ATOM      7  C   UNL     1      -1.538 -28.987 -16.717  0.00  0.00    +0.000 A 
ENDROOT
BRANCH   2   8
ATOM      8  N   UNL     1      -5.597 -27.914 -16.586  0.00  0.00    +0.000 N 
ATOM      9  C   UNL     1      -6.468 -28.240 -15.559  0.00  0.00    +0.000 C 
ATOM     10  O   UNL     1      -6.209 -28.931 -14.582  0.00  0.00    +0.000 OA
ATOM     11  H   UNL     1      -5.967 -27.386 -17.371  0.00  0.00    +0.000 HD
BRANCH   9  12
ATOM     12  C   UNL     1      -7.863 -27.717 -15.736  0.00  0.00    +0.000 C 
ATOM     13  C   UNL     1      -8.575 -27.265 -14.546  0.00  0.00    +0.000 C 
ATOM     14  C   UNL     1      -8.958 -28.532 -15.222  0.00  0.00    +0.000 C 
BRANCH  12  15
ATOM     15  C   UNL     1      -8.089 -26.948 -17.004  0.00  0.00    +0.000 C 
ATOM     16  O   UNL     1      -8.023 -27.542 -18.074  0.00  0.00    +0.000 OA
ATOM     17  N   UNL     1      -8.408 -25.613 -16.825  0.00  0.00    +0.000 N 
ATOM     18  H   UNL     1      -8.483 -25.266 -15.873  0.00  0.00    +0.000 HD
BRANCH  17  19
ATOM     19  C   UNL     1      -8.677 -24.692 -17.854  0.00  0.00    +0.000 A 
ATOM     20  C   UNL     1      -7.595 -24.008 -18.412  0.00  0.00    +0.000 A 
ATOM     21  C   UNL     1      -7.797 -23.083 -19.434  0.00  0.00    +0.000 A 
ATOM     22  C   UNL     1      -9.088 -22.850 -19.895  0.00  0.00    +0.000 A 
ATOM     23  F   UNL     1      -9.284 -21.963 -20.880  0.00  0.00    +0.000 F 
ATOM     24  C   UNL     1     -10.176 -23.524 -19.354  0.00  0.00    +0.000 A 
ATOM     25  C   UNL     1      -9.966 -24.445 -18.331  0.00  0.00    +0.000 A 
ENDBRANCH  17  19
ENDBRANCH  12  15
ENDBRANCH   9  12
ENDBRANCH   2   8
BRANCH   7  26
ATOM     26  O   UNL     1      -0.186 -29.226 -16.759  0.00  0.00    +0.000 OA
BRANCH  26  27
ATOM     27  C   UNL     1       0.493 -29.223 -15.556  0.00  0.00    +0.000 A 
ATOM     28  C   UNL     1       0.315 -30.316 -14.693  0.00  0.00    +0.000 A 
ATOM     29  C   UNL     1       1.052 -30.333 -13.497  0.00  0.00    +0.000 A 
ATOM     30  C   UNL     1      -0.568 -31.368 -14.982  0.00  0.00    +0.000 A 
ATOM     31  N   UNL     1       1.914 -29.357 -13.170  0.00  0.00    +0.000 NA
ATOM     32  C   UNL     1       0.875 -31.406 -12.637  0.00  0.00    +0.000 A 
ATOM     33  C   UNL     1       2.067 -28.328 -14.034  0.00  0.00    +0.000 A 
ATOM     34  C   UNL     1       1.396 -28.216 -15.235  0.00  0.00    +0.000 A 
ATOM     35  C   UNL     1      -0.003 -32.461 -12.920  0.00  0.00    +0.000 A 
ATOM     36  C   UNL     1      -0.736 -32.443 -14.108  0.00  0.00    +0.000 A 
BRANCH  36  37
ATOM     37  O   UNL     1      -1.588 -33.497 -14.336  0.00  0.00    +0.000 OA
ATOM     38  C   UNL     1      -1.182 -34.403 -15.324  0.00  0.00    +0.000 C 
ENDBRANCH  36  37
BRANCH  35  39
ATOM     39  O   UNL     1      -0.194 -33.530 -12.076  0.00  0.00    +0.000 OA
BRANCH  39  40
ATOM     40  C   UNL     1      -0.975 -33.285 -11.027  0.00  0.00    +0.000 C 
ATOM     41  C   UNL     1      -1.866 -33.017  -9.809  0.00  0.00    +0.000 C 
BRANCH  41  42
ATOM     42  C   UNL     1      -2.751 -32.749  -8.587  0.00  0.00    +0.000 C 
BRANCH  42  43
ATOM     43  N   UNL     1      -3.592 -32.495  -7.426  0.00  0.00    +0.000 N 
ATOM     44  C   UNL     1      -4.995 -32.812  -7.832  0.00  0.00    +0.000 C 
ATOM     45  C   UNL     1      -5.904 -34.000  -7.375  0.00  0.00    +0.000 C 
ATOM     46  O   UNL     1      -5.745 -35.051  -6.542  0.00  0.00    +0.000 OA
ATOM     47  C   UNL     1      -4.477 -34.769  -6.179  0.00  0.00    +0.000 C 
ATOM     48  C   UNL     1      -3.428 -33.665  -6.511  0.00  0.00    +0.000 C 
ENDBRANCH  42  43
ENDBRANCH  41  42
ENDBRANCH  39  40
ENDBRANCH  35  39
ENDBRANCH  26  27
ENDBRANCH   7  26
TORSDOF 11
ENDMDL
