MODEL 1
REMARK VINA RESULT:      -4.3      0.000      0.000
REMARK  Name = 
REMARK  7 active torsions:
REMARK  status: ('A' for Active; 'I' for Inactive)
REMARK    1  A    between atoms: S_1  and  O_3
REMARK    2  A    between atoms: S_1  and  O_6
REMARK    3  A    between atoms: O_3  and  C_9
REMARK    4  A    between atoms: O_4  and  C_10
REMARK    5  A    between atoms: O_5  and  C_11
REMARK    6  A    between atoms: C_12  and  C_14
REMARK    7  A    between atoms: C_13  and  C_15
REMARK                            x       y       z     vdW  Elec       q    Type
REMARK                         _______ _______ _______ _____ _____    ______ ____
ROOT
ATOM      1  O   UNL     1      -6.257 -34.381  -5.244  0.00  0.00    +0.000 OA
ATOM      2  C   UNL     1      -4.432 -34.484  -3.609  0.00  0.00    +0.000 C 
ATOM      3  C   UNL     1      -3.616 -33.521  -4.482  0.00  0.00    +0.000 C 
ATOM      4  C   UNL     1      -4.043 -33.613  -5.954  0.00  0.00    +0.000 C 
ATOM      5  C   UNL     1      -5.933 -34.242  -3.854  0.00  0.00    +0.000 C 
ATOM      6  C   UNL     1      -5.563 -33.440  -6.076  0.00  0.00    +0.000 C 
ATOM      7  C   UNL     1      -6.803 -35.231  -3.087  0.00  0.00    +0.000 C 
ATOM      8  C   UNL     1      -6.038 -33.660  -7.508  0.00  0.00    +0.000 C 
ENDROOT
BRANCH   3   9
ATOM      9  O   UNL     1      -2.203 -33.767  -4.420  0.00  0.00    +0.000 OA
ATOM     10  H   UNL     1      -1.923 -33.796  -3.482  0.00  0.00    +0.000 HD
ENDBRANCH   3   9
BRANCH   4  11
ATOM     11  O   UNL     1      -3.351 -32.604  -6.697  0.00  0.00    +0.000 OA
ATOM     12  H   UNL     1      -4.054 -32.119  -7.176  0.00  0.00    +0.000 HD
ENDBRANCH   4  11
BRANCH   2  13
ATOM     13  O   UNL     1      -4.102 -35.832  -3.948  0.00  0.00    +0.000 OA
BRANCH  13  14
ATOM     14  S   UNL     1      -3.013 -36.615  -3.039  0.00  0.00    +0.000 S 
ATOM     15  O   UNL     1      -3.692 -37.675  -2.331  0.00  0.00    +0.000 OA
ATOM     16  O   UNL     1      -1.821 -36.843  -3.827  0.00  0.00    +0.000 OA
BRANCH  14  17
ATOM     17  O   UNL     1      -2.662 -35.510  -1.924  0.00  0.00    +0.000 OA
ATOM     18  H   UNL     1      -1.701 -35.579  -1.743  0.00  0.00    +0.000 HD
ENDBRANCH  14  17
ENDBRANCH  13  14
ENDBRANCH   2  13
TORSDOF 5
ENDMDL
MODEL 2
REMARK VINA RESULT:      -4.3      3.631      6.164
REMARK  Name = 
REMARK  7 active torsions:
REMARK  status: ('A' for Active; 'I' for Inactive)
REMARK    1  A    between atoms: S_1  and  O_3
REMARK    2  A    between atoms: S_1  and  O_6
REMARK    3  A    between atoms: O_3  and  C_9
REMARK    4  A    between atoms: O_4  and  C_10
REMARK    5  A    between atoms: O_5  and  C_11
REMARK    6  A    between atoms: C_12  and  C_14
REMARK    7  A    between atoms: C_13  and  C_15
REMARK                            x       y       z     vdW  Elec       q    Type
REMARK                         _______ _______ _______ _____ _____    ______ ____
ROOT
ATOM      1  O   UNL     1      -3.113 -33.161  -6.981  0.00  0.00    +0.000 OA
ATOM      2  C   UNL     1      -4.897 -33.175  -8.663  0.00  0.00    +0.000 C 
ATOM      3  C   UNL     1      -5.913 -33.507  -7.561  0.00  0.00    +0.000 C 
ATOM      4  C   UNL     1      -5.236 -34.225  -6.385  0.00  0.00    +0.000 C 
ATOM      5  C   UNL     1      -3.711 -32.410  -8.046  0.00  0.00    +0.000 C 
ATOM      6  C   UNL     1      -4.021 -33.421  -5.901  0.00  0.00    +0.000 C 
ATOM      7  C   UNL     1      -2.617 -32.130  -9.070  0.00  0.00    +0.000 C 
ATOM      8  C   UNL     1      -3.248 -34.171  -4.822  0.00  0.00    +0.000 C 
ENDROOT
BRANCH   3   9
ATOM      9  O   UNL     1      -6.989 -34.338  -8.021  0.00  0.00    +0.000 OA
ATOM     10  H   UNL     1      -6.684 -35.269  -8.052  0.00  0.00    +0.000 HD
ENDBRANCH   3   9
BRANCH   4  11
ATOM     11  O   UNL     1      -6.194 -34.388  -5.334  0.00  0.00    +0.000 OA
ATOM     12  H   UNL     1      -6.865 -33.694  -5.497  0.00  0.00    +0.000 HD
ENDBRANCH   4  11
BRANCH   2  13
ATOM     13  O   UNL     1      -4.428 -34.385  -9.261  0.00  0.00    +0.000 OA
BRANCH  13  14
ATOM     14  S   UNL     1      -4.933 -34.755 -10.756  0.00  0.00    +0.000 S 
ATOM     15  O   UNL     1      -3.771 -34.920 -11.598  0.00  0.00    +0.000 OA
ATOM     16  O   UNL     1      -5.976 -35.753 -10.665  0.00  0.00    +0.000 OA
BRANCH  14  17
ATOM     17  O   UNL     1      -5.611 -33.374 -11.225  0.00  0.00    +0.000 OA
ATOM     18  H   UNL     1      -5.087 -33.040 -11.983  0.00  0.00    +0.000 HD
ENDBRANCH  14  17
ENDBRANCH  13  14
ENDBRANCH   2  13
TORSDOF 5
ENDMDL
MODEL 3
REMARK VINA RESULT:      -4.3     28.917     30.415
REMARK  Name = 
REMARK  7 active torsions:
REMARK  status: ('A' for Active; 'I' for Inactive)
REMARK    1  A    between atoms: S_1  and  O_3
REMARK    2  A    between atoms: S_1  and  O_6
REMARK    3  A    between atoms: O_3  and  C_9
REMARK    4  A    between atoms: O_4  and  C_10
REMARK    5  A    between atoms: O_5  and  C_11
REMARK    6  A    between atoms: C_12  and  C_14
REMARK    7  A    between atoms: C_13  and  C_15
REMARK                            x       y       z     vdW  Elec       q    Type
REMARK                         _______ _______ _______ _____ _____    ______ ____
ROOT
ATOM      1  O   UNL     1     -13.813  -5.980  -8.111  0.00  0.00    +0.000 OA
ATOM      2  C   UNL     1     -13.653  -5.252  -5.775  0.00  0.00    +0.000 C 
ATOM      3  C   UNL     1     -12.322  -6.005  -5.647  0.00  0.00    +0.000 C 
ATOM      4  C   UNL     1     -12.245  -7.165  -6.650  0.00  0.00    +0.000 C 
ATOM      5  C   UNL     1     -13.863  -4.840  -7.244  0.00  0.00    +0.000 C 
ATOM      6  C   UNL     1     -12.550  -6.660  -8.067  0.00  0.00    +0.000 C 
ATOM      7  C   UNL     1     -15.215  -4.168  -7.460  0.00  0.00    +0.000 C 
ATOM      8  C   UNL     1     -12.614  -7.809  -9.068  0.00  0.00    +0.000 C 
ENDROOT
BRANCH   3   9
ATOM      9  O   UNL     1     -12.106  -6.546  -4.335  0.00  0.00    +0.000 OA
ATOM     10  H   UNL     1     -12.327  -7.501  -4.341  0.00  0.00    +0.000 HD
ENDBRANCH   3   9
BRANCH   4  11
ATOM     11  O   UNL     1     -10.938  -7.744  -6.583  0.00  0.00    +0.000 OA
ATOM     12  H   UNL     1     -10.326  -6.980  -6.564  0.00  0.00    +0.000 HD
ENDBRANCH   4  11
BRANCH   2  13
ATOM     13  O   UNL     1     -14.724  -6.100  -5.357  0.00  0.00    +0.000 OA
BRANCH  13  14
ATOM     14  S   UNL     1     -15.431  -5.808  -3.928  0.00  0.00    +0.000 S 
ATOM     15  O   UNL     1     -15.207  -4.423  -3.588  0.00  0.00    +0.000 OA
ATOM     16  O   UNL     1     -16.748  -6.408  -3.926  0.00  0.00    +0.000 OA
BRANCH  14  17
ATOM     17  O   UNL     1     -14.502  -6.654  -2.924  0.00  0.00    +0.000 OA
ATOM     18  H   UNL     1     -15.054  -7.381  -2.566  0.00  0.00    +0.000 HD
ENDBRANCH  14  17
ENDBRANCH  13  14
ENDBRANCH   2  13
TORSDOF 5
ENDMDL
MODEL 4
REMARK VINA RESULT:      -4.1      3.642      5.173
REMARK  Name = 
REMARK  7 active torsions:
REMARK  status: ('A' for Active; 'I' for Inactive)
REMARK    1  A    between atoms: S_1  and  O_3
REMARK    2  A    between atoms: S_1  and  O_6
REMARK    3  A    between atoms: O_3  and  C_9
REMARK    4  A    between atoms: O_4  and  C_10
REMARK    5  A    between atoms: O_5  and  C_11
REMARK    6  A    between atoms: C_12  and  C_14
REMARK    7  A    between atoms: C_13  and  C_15
REMARK                            x       y       z     vdW  Elec       q    Type
REMARK                         _______ _______ _______ _____ _____    ______ ____
ROOT
ATOM      1  O   UNL     1      -2.354 -35.191  -9.827  0.00  0.00    +0.000 OA
ATOM      2  C   UNL     1      -3.757 -33.688  -8.490  0.00  0.00    +0.000 C 
ATOM      3  C   UNL     1      -3.074 -32.484  -9.155  0.00  0.00    +0.000 C 
ATOM      4  C   UNL     1      -1.664 -32.849  -9.642  0.00  0.00    +0.000 C 
ATOM      5  C   UNL     1      -3.704 -34.893  -9.448  0.00  0.00    +0.000 C 
ATOM      6  C   UNL     1      -1.716 -34.108 -10.519  0.00  0.00    +0.000 C 
ATOM      7  C   UNL     1      -4.282 -36.152  -8.813  0.00  0.00    +0.000 C 
ATOM      8  C   UNL     1      -0.318 -34.574 -10.909  0.00  0.00    +0.000 C 
ENDROOT
BRANCH   3   9
ATOM      9  O   UNL     1      -2.955 -31.352  -8.281  0.00  0.00    +0.000 OA
ATOM     10  H   UNL     1      -2.022 -31.263  -7.995  0.00  0.00    +0.000 HD
ENDBRANCH   3   9
BRANCH   4  11
ATOM     11  O   UNL     1      -1.129 -31.739 -10.370  0.00  0.00    +0.000 OA
ATOM     12  H   UNL     1      -0.817 -32.121 -11.216  0.00  0.00    +0.000 HD
ENDBRANCH   4  11
BRANCH   2  13
ATOM     13  O   UNL     1      -3.078 -34.011  -7.275  0.00  0.00    +0.000 OA
BRANCH  13  14
ATOM     14  S   UNL     1      -3.838 -33.743  -5.869  0.00  0.00    +0.000 S 
ATOM     15  O   UNL     1      -4.587 -32.514  -5.987  0.00  0.00    +0.000 OA
ATOM     16  O   UNL     1      -4.437 -34.980  -5.417  0.00  0.00    +0.000 OA
BRANCH  14  17
ATOM     17  O   UNL     1      -2.607 -33.404  -4.891  0.00  0.00    +0.000 OA
ATOM     18  H   UNL     1      -2.913 -32.706  -4.275  0.00  0.00    +0.000 HD
ENDBRANCH  14  17
ENDBRANCH  13  14
ENDBRANCH   2  13
TORSDOF 5
ENDMDL
MODEL 5
REMARK VINA RESULT:      -3.9     12.400     14.103
REMARK  Name = 
REMARK  7 active torsions:
REMARK  status: ('A' for Active; 'I' for Inactive)
REMARK    1  A    between atoms: S_1  and  O_3
REMARK    2  A    between atoms: S_1  and  O_6
REMARK    3  A    between atoms: O_3  and  C_9
REMARK    4  A    between atoms: O_4  and  C_10
REMARK    5  A    between atoms: O_5  and  C_11
REMARK    6  A    between atoms: C_12  and  C_14
REMARK    7  A    between atoms: C_13  and  C_15
REMARK                            x       y       z     vdW  Elec       q    Type
REMARK                         _______ _______ _______ _____ _____    ______ ____
ROOT
ATOM      1  O   UNL     1      -6.345 -27.101 -15.608  0.00  0.00    +0.000 OA
ATOM      2  C   UNL     1      -8.052 -28.848 -15.389  0.00  0.00    +0.000 C 
ATOM      3  C   UNL     1      -6.943 -29.874 -15.115  0.00  0.00    +0.000 C 
ATOM      4  C   UNL     1      -5.615 -29.433 -15.746  0.00  0.00    +0.000 C 
ATOM      5  C   UNL     1      -7.569 -27.452 -14.951  0.00  0.00    +0.000 C 
ATOM      6  C   UNL     1      -5.270 -28.003 -15.310  0.00  0.00    +0.000 C 
ATOM      7  C   UNL     1      -8.587 -26.367 -15.281  0.00  0.00    +0.000 C 
ATOM      8  C   UNL     1      -4.026 -27.485 -16.023  0.00  0.00    +0.000 C 
ENDROOT
BRANCH   3   9
ATOM      9  O   UNL     1      -7.254 -31.183 -15.617  0.00  0.00    +0.000 OA
ATOM     10  H   UNL     1      -6.775 -31.852 -15.085  0.00  0.00    +0.000 HD
ENDBRANCH   3   9
BRANCH   4  11
ATOM     11  O   UNL     1      -4.591 -30.351 -15.348  0.00  0.00    +0.000 OA
ATOM     12  H   UNL     1      -4.948 -31.236 -15.568  0.00  0.00    +0.000 HD
ENDBRANCH   4  11
BRANCH   2  13
ATOM     13  O   UNL     1      -8.356 -28.833 -16.785  0.00  0.00    +0.000 OA
BRANCH  13  14
ATOM     14  S   UNL     1      -9.741 -29.511 -17.282  0.00  0.00    +0.000 S 
ATOM     15  O   UNL     1      -9.529 -30.059 -18.601  0.00  0.00    +0.000 OA
ATOM     16  O   UNL     1     -10.298 -30.289 -16.197  0.00  0.00    +0.000 OA
BRANCH  14  17
ATOM     17  O   UNL     1     -10.678 -28.222 -17.497  0.00  0.00    +0.000 OA
ATOM     18  H   UNL     1     -10.544 -27.637 -16.722  0.00  0.00    +0.000 HD
ENDBRANCH  14  17
ENDBRANCH  13  14
ENDBRANCH   2  13
TORSDOF 5
ENDMDL
MODEL 6
REMARK VINA RESULT:      -3.9      1.635      2.374
REMARK  Name = 
REMARK  7 active torsions:
REMARK  status: ('A' for Active; 'I' for Inactive)
REMARK    1  A    between atoms: S_1  and  O_3
REMARK    2  A    between atoms: S_1  and  O_6
REMARK    3  A    between atoms: O_3  and  C_9
REMARK    4  A    between atoms: O_4  and  C_10
REMARK    5  A    between atoms: O_5  and  C_11
REMARK    6  A    between atoms: C_12  and  C_14
REMARK    7  A    between atoms: C_13  and  C_15
REMARK                            x       y       z     vdW  Elec       q    Type
REMARK                         _______ _______ _______ _____ _____    ______ ____
ROOT
ATOM      1  O   UNL     1      -7.105 -35.910  -4.230  0.00  0.00    +0.000 OA
ATOM      2  C   UNL     1      -5.222 -34.367  -3.939  0.00  0.00    +0.000 C 
ATOM      3  C   UNL     1      -5.601 -33.680  -5.259  0.00  0.00    +0.000 C 
ATOM      4  C   UNL     1      -6.354 -34.644  -6.186  0.00  0.00    +0.000 C 
ATOM      5  C   UNL     1      -6.481 -34.999  -3.317  0.00  0.00    +0.000 C 
ATOM      6  C   UNL     1      -7.538 -35.279  -5.443  0.00  0.00    +0.000 C 
ATOM      7  C   UNL     1      -6.160 -35.780  -2.048  0.00  0.00    +0.000 C 
ATOM      8  C   UNL     1      -8.227 -36.341  -6.293  0.00  0.00    +0.000 C 
ENDROOT
BRANCH   3   9
ATOM      9  O   UNL     1      -4.465 -33.178  -5.978  0.00  0.00    +0.000 OA
ATOM     10  H   UNL     1      -4.334 -33.716  -6.786  0.00  0.00    +0.000 HD
ENDBRANCH   3   9
BRANCH   4  11
ATOM     11  O   UNL     1      -6.800 -33.919  -7.337  0.00  0.00    +0.000 OA
ATOM     12  H   UNL     1      -5.980 -33.615  -7.776  0.00  0.00    +0.000 HD
ENDBRANCH   4  11
BRANCH   2  13
ATOM     13  O   UNL     1      -4.250 -35.383  -4.192  0.00  0.00    +0.000 OA
BRANCH  13  14
ATOM     14  S   UNL     1      -2.712 -35.106  -3.764  0.00  0.00    +0.000 S 
ATOM     15  O   UNL     1      -1.899 -36.186  -4.273  0.00  0.00    +0.000 OA
ATOM     16  O   UNL     1      -2.401 -33.714  -4.010  0.00  0.00    +0.000 OA
BRANCH  14  17
ATOM     17  O   UNL     1      -2.769 -35.325  -2.172  0.00  0.00    +0.000 OA
ATOM     18  H   UNL     1      -1.860 -35.192  -1.831  0.00  0.00    +0.000 HD
ENDBRANCH  14  17
ENDBRANCH  13  14
ENDBRANCH   2  13
TORSDOF 5
ENDMDL
MODEL 7
REMARK VINA RESULT:      -3.6     29.220     30.785
REMARK  Name = 
REMARK  7 active torsions:
REMARK  status: ('A' for Active; 'I' for Inactive)
REMARK    1  A    between atoms: S_1  and  O_3
REMARK    2  A    between atoms: S_1  and  O_6
REMARK    3  A    between atoms: O_3  and  C_9
REMARK    4  A    between atoms: O_4  and  C_10
REMARK    5  A    between atoms: O_5  and  C_11
REMARK    6  A    between atoms: C_12  and  C_14
REMARK    7  A    between atoms: C_13  and  C_15
REMARK                            x       y       z     vdW  Elec       q    Type
REMARK                         _______ _______ _______ _____ _____    ______ ____
ROOT
ATOM      1  O   UNL     1     -14.297  -4.137  -7.027  0.00  0.00    +0.000 OA
ATOM      2  C   UNL     1     -12.975  -6.124  -6.465  0.00  0.00    +0.000 C 
ATOM      3  C   UNL     1     -13.438  -6.000  -5.006  0.00  0.00    +0.000 C 
ATOM      4  C   UNL     1     -13.804  -4.548  -4.665  0.00  0.00    +0.000 C 
ATOM      5  C   UNL     1     -14.037  -5.500  -7.388  0.00  0.00    +0.000 C 
ATOM      6  C   UNL     1     -14.803  -3.998  -5.692  0.00  0.00    +0.000 C 
ATOM      7  C   UNL     1     -13.598  -5.504  -8.848  0.00  0.00    +0.000 C 
ATOM      8  C   UNL     1     -15.085  -2.518  -5.460  0.00  0.00    +0.000 C 
ENDROOT
BRANCH   3   9
ATOM      9  O   UNL     1     -12.446  -6.435  -4.063  0.00  0.00    +0.000 OA
ATOM     10  H   UNL     1     -12.694  -6.120  -3.169  0.00  0.00    +0.000 HD
ENDBRANCH   3   9
BRANCH   4  11
ATOM     11  O   UNL     1     -14.354  -4.513  -3.344  0.00  0.00    +0.000 OA
ATOM     12  H   UNL     1     -13.577  -4.507  -2.748  0.00  0.00    +0.000 HD
ENDBRANCH   4  11
BRANCH   2  13
ATOM     13  O   UNL     1     -11.732  -5.438  -6.631  0.00  0.00    +0.000 OA
BRANCH  13  14
ATOM     14  S   UNL     1     -10.363  -6.304  -6.615  0.00  0.00    +0.000 S 
ATOM     15  O   UNL     1      -9.773  -6.243  -7.932  0.00  0.00    +0.000 OA
ATOM     16  O   UNL     1      -9.621  -5.986  -5.414  0.00  0.00    +0.000 OA
BRANCH  14  17
ATOM     17  O   UNL     1     -10.924  -7.804  -6.465  0.00  0.00    +0.000 OA
ATOM     18  H   UNL     1     -11.684  -7.889  -7.078  0.00  0.00    +0.000 HD
ENDBRANCH  14  17
ENDBRANCH  13  14
ENDBRANCH   2  13
TORSDOF 5
ENDMDL
MODEL 8
REMARK VINA RESULT:      -3.5     20.690     21.960
REMARK  Name = 
REMARK  7 active torsions:
REMARK  status: ('A' for Active; 'I' for Inactive)
REMARK    1  A    between atoms: S_1  and  O_3
REMARK    2  A    between atoms: S_1  and  O_6
REMARK    3  A    between atoms: O_3  and  C_9
REMARK    4  A    between atoms: O_4  and  C_10
REMARK    5  A    between atoms: O_5  and  C_11
REMARK    6  A    between atoms: C_12  and  C_14
REMARK    7  A    between atoms: C_13  and  C_15
REMARK                            x       y       z     vdW  Elec       q    Type
REMARK                         _______ _______ _______ _____ _____    ______ ____
ROOT
ATOM      1  O   UNL     1      -7.136 -14.304 -15.577  0.00  0.00    +0.000 OA
ATOM      2  C   UNL     1      -5.565 -16.072 -16.223  0.00  0.00    +0.000 C 
ATOM      3  C   UNL     1      -6.739 -17.056 -16.325  0.00  0.00    +0.000 C 
ATOM      4  C   UNL     1      -7.902 -16.624 -15.421  0.00  0.00    +0.000 C 
ATOM      5  C   UNL     1      -6.078 -14.643 -16.483  0.00  0.00    +0.000 C 
ATOM      6  C   UNL     1      -8.278 -15.163 -15.704  0.00  0.00    +0.000 C 
ATOM      7  C   UNL     1      -4.979 -13.602 -16.304  0.00  0.00    +0.000 C 
ATOM      8  C   UNL     1      -9.339 -14.661 -14.731  0.00  0.00    +0.000 C 
ENDROOT
BRANCH   3   9
ATOM      9  O   UNL     1      -6.380 -18.399 -15.965  0.00  0.00    +0.000 OA
ATOM     10  H   UNL     1      -5.614 -18.373 -15.354  0.00  0.00    +0.000 HD
ENDBRANCH   3   9
BRANCH   4  11
ATOM     11  O   UNL     1      -9.014 -17.494 -15.656  0.00  0.00    +0.000 OA
ATOM     12  H   UNL     1      -8.663 -18.396 -15.506  0.00  0.00    +0.000 HD
ENDBRANCH   4  11
BRANCH   2  13
ATOM     13  O   UNL     1      -4.992 -16.147 -14.917  0.00  0.00    +0.000 OA
BRANCH  13  14
ATOM     14  S   UNL     1      -3.510 -16.782 -14.757  0.00  0.00    +0.000 S 
ATOM     15  O   UNL     1      -3.582 -18.186 -15.085  0.00  0.00    +0.000 OA
ATOM     16  O   UNL     1      -2.548 -15.888 -15.366  0.00  0.00    +0.000 OA
BRANCH  14  17
ATOM     17  O   UNL     1      -3.298 -16.723 -13.163  0.00  0.00    +0.000 OA
ATOM     18  H   UNL     1      -3.955 -17.330 -12.764  0.00  0.00    +0.000 HD
ENDBRANCH  14  17
ENDBRANCH  13  14
ENDBRANCH   2  13
TORSDOF 5
ENDMDL
MODEL 9
REMARK VINA RESULT:      -3.5     18.774     20.100
REMARK  Name = 
REMARK  7 active torsions:
REMARK  status: ('A' for Active; 'I' for Inactive)
REMARK    1  A    between atoms: S_1  and  O_3
REMARK    2  A    between atoms: S_1  and  O_6
REMARK    3  A    between atoms: O_3  and  C_9
REMARK    4  A    between atoms: O_4  and  C_10
REMARK    5  A    between atoms: O_5  and  C_11
REMARK    6  A    between atoms: C_12  and  C_14
REMARK    7  A    between atoms: C_13  and  C_15
REMARK                            x       y       z     vdW  Elec       q    Type
REMARK                         _______ _______ _______ _____ _____    ______ ____
ROOT
ATOM      1  O   UNL     1      -2.389 -16.809 -15.781  0.00  0.00    +0.000 OA
ATOM      2  C   UNL     1      -0.284 -17.938 -15.227  0.00  0.00    +0.000 C 
ATOM      3  C   UNL     1      -0.895 -19.269 -15.688  0.00  0.00    +0.000 C 
ATOM      4  C   UNL     1      -2.425 -19.247 -15.562  0.00  0.00    +0.000 C 
ATOM      5  C   UNL     1      -0.970 -16.780 -15.976  0.00  0.00    +0.000 C 
ATOM      6  C   UNL     1      -2.997 -18.012 -16.271  0.00  0.00    +0.000 C 
ATOM      7  C   UNL     1      -0.476 -15.420 -15.498  0.00  0.00    +0.000 C 
ATOM      8  C   UNL     1      -4.501 -17.889 -16.052  0.00  0.00    +0.000 C 
ENDROOT
BRANCH   3   9
ATOM      9  O   UNL     1      -0.411 -20.397 -14.943  0.00  0.00    +0.000 OA
ATOM     10  H   UNL     1       0.567 -20.356 -14.899  0.00  0.00    +0.000 HD
ENDBRANCH   3   9
BRANCH   4  11
ATOM     11  O   UNL     1      -2.949 -20.453 -16.128  0.00  0.00    +0.000 OA
ATOM     12  H   UNL     1      -2.418 -20.601 -16.938  0.00  0.00    +0.000 HD
ENDBRANCH   4  11
BRANCH   2  13
ATOM     13  O   UNL     1      -0.482 -17.783 -13.821  0.00  0.00    +0.000 OA
BRANCH  13  14
ATOM     14  S   UNL     1       0.802 -17.909 -12.840  0.00  0.00    +0.000 S 
ATOM     15  O   UNL     1       0.665 -19.122 -12.069  0.00  0.00    +0.000 OA
ATOM     16  O   UNL     1       1.998 -17.595 -13.591  0.00  0.00    +0.000 OA
BRANCH  14  17
ATOM     17  O   UNL     1       0.541 -16.708 -11.803  0.00  0.00    +0.000 OA
ATOM     18  H   UNL     1       0.509 -17.104 -10.907  0.00  0.00    +0.000 HD
ENDBRANCH  14  17
ENDBRANCH  13  14
ENDBRANCH   2  13
TORSDOF 5
ENDMDL
