MODEL 1
REMARK VINA RESULT:      -6.7      0.000      0.000
REMARK  Name = Fulvestrant.pdbqt.pdb
REMARK  12 active torsions:
REMARK  status: ('A' for Active; 'I' for Inactive)
REMARK    1  A    between atoms: C_6  and  O_40
REMARK    2  A    between atoms: C_8  and  C_19
REMARK    3  A    between atoms: C_18  and  O_42
REMARK    4  A    between atoms: C_20  and  C_21
REMARK    5  A    between atoms: C_22  and  C_23
REMARK    6  A    between atoms: C_23  and  C_24
REMARK    7  A    between atoms: C_25  and  C_26
REMARK    8  A    between atoms: C_27  and  S_28
REMARK    9  A    between atoms: S_28  and  C_30
REMARK   10  A    between atoms: C_30  and  C_31
REMARK   11  A    between atoms: C_32  and  C_33
REMARK   12  A    between atoms: C_33  and  C_36
REMARK                            x       y       z     vdW  Elec       q    Type
REMARK                         _______ _______ _______ _____ _____    ______ ____
ROOT
ATOM      1  C   UNL     1      -4.576 -36.487  -5.974  0.00  0.00    +0.000 C 
ATOM      2  C   UNL     1      -3.815 -37.874  -5.706  0.00  0.00    +0.000 C 
ATOM      3  C   UNL     1      -4.011 -35.376  -6.805  0.00  0.00    +0.000 A 
ATOM      4  C   UNL     1      -2.854 -35.621  -7.797  0.00  0.00    +0.000 A 
ATOM      5  C   UNL     1      -2.825 -37.996  -6.770  0.00  0.00    +0.000 C 
ATOM      6  C   UNL     1      -4.953 -38.915  -5.803  0.00  0.00    +0.000 C 
ATOM      7  C   UNL     1      -5.972 -36.795  -6.060  0.00  0.00    +0.000 C 
ATOM      8  C   UNL     1      -4.544 -33.989  -6.733  0.00  0.00    +0.000 A 
ATOM      9  C   UNL     1      -2.363 -36.947  -7.743  0.00  0.00    +0.000 C 
ATOM     10  C   UNL     1      -6.211 -38.280  -5.980  0.00  0.00    +0.000 C 
ATOM     11  C   UNL     1      -3.218 -37.846  -4.276  0.00  0.00    +0.000 C 
ATOM     12  C   UNL     1      -2.284 -34.561  -8.676  0.00  0.00    +0.000 A 
ATOM     13  C   UNL     1      -3.878 -33.138  -7.648  0.00  0.00    +0.000 A 
ATOM     14  C   UNL     1      -2.829 -33.257  -8.594  0.00  0.00    +0.000 A 
ATOM     15  C   UNL     1      -1.241 -34.797  -9.569  0.00  0.00    +0.000 A 
ATOM     16  C   UNL     1      -2.359 -32.211  -9.372  0.00  0.00    +0.000 A 
ATOM     17  C   UNL     1      -0.758 -33.753 -10.359  0.00  0.00    +0.000 A 
ATOM     18  C   UNL     1      -1.316 -32.478 -10.254  0.00  0.00    +0.000 A 
ENDROOT
BRANCH   8  19
ATOM     19  C   UNL     1      -5.459 -33.551  -5.746  0.00  0.00    +0.000 C 
ATOM     20  C   UNL     1      -6.433 -33.069  -4.666  0.00  0.00    +0.000 C 
BRANCH  20  21
ATOM     21  C   UNL     1      -7.383 -32.577  -3.571  0.00  0.00    +0.000 C 
ATOM     22  C   UNL     1      -8.317 -32.102  -2.454  0.00  0.00    +0.000 C 
BRANCH  22  23
ATOM     23  C   UNL     1      -9.234 -31.646  -1.315  0.00  0.00    +0.000 C 
BRANCH  23  24
ATOM     24  C   UNL     1     -10.175 -31.179  -0.199  0.00  0.00    +0.000 C 
ATOM     25  C   UNL     1     -11.138 -30.737   0.907  0.00  0.00    +0.000 C 
BRANCH  25  26
ATOM     26  C   UNL     1     -12.124 -30.320   2.003  0.00  0.00    +0.000 C 
ATOM     27  C   UNL     1     -13.096 -29.869   3.097  0.00  0.00    +0.000 C 
BRANCH  27  28
ATOM     28  S   UNL     1     -14.197 -29.320   4.356  0.00  0.00    +0.000 S 
ATOM     29  O   UNL     1     -13.062 -28.921   5.254  0.00  0.00    +0.000 OA
BRANCH  28  30
ATOM     30  C   UNL     1     -14.327 -27.694   3.693  0.00  0.00    +0.000 C 
BRANCH  30  31
ATOM     31  C   UNL     1     -14.463 -26.282   3.111  0.00  0.00    +0.000 C 
ATOM     32  C   UNL     1     -14.603 -24.864   2.547  0.00  0.00    +0.000 C 
BRANCH  32  33
ATOM     33  C   UNL     1     -14.741 -23.505   2.016  0.00  0.00    +0.000 C 
ATOM     34  F   UNL     1     -15.952 -23.021   2.411  0.00  0.00    +0.000 F 
ATOM     35  F   UNL     1     -14.798 -23.593   0.658  0.00  0.00    +0.000 F 
BRANCH  33  36
ATOM     36  C   UNL     1     -13.611 -22.567   2.453  0.00  0.00    +0.000 C 
ATOM     37  F   UNL     1     -13.130 -21.832   1.417  0.00  0.00    +0.000 F 
ATOM     38  F   UNL     1     -12.559 -23.242   2.978  0.00  0.00    +0.000 F 
ATOM     39  F   UNL     1     -14.024 -21.686   3.399  0.00  0.00    +0.000 F 
ENDBRANCH  33  36
ENDBRANCH  32  33
ENDBRANCH  30  31
ENDBRANCH  28  30
ENDBRANCH  27  28
ENDBRANCH  25  26
ENDBRANCH  23  24
ENDBRANCH  22  23
ENDBRANCH  20  21
ENDBRANCH   8  19
BRANCH   6  40
ATOM     40  O   UNL     1      -4.734 -40.228  -6.164  0.00  0.00    +0.000 OA
ATOM     41  H   UNL     1      -3.788 -40.412  -6.303  0.00  0.00    +0.000 HD
ENDBRANCH   6  40
BRANCH  18  42
ATOM     42  O   UNL     1      -0.809 -31.487 -11.047  0.00  0.00    +0.000 OA
ATOM     43  H   UNL     1      -1.549 -31.055 -11.509  0.00  0.00    +0.000 HD
ENDBRANCH  18  42
TORSDOF 12
ENDMDL
MODEL 2
REMARK VINA RESULT:      -6.1     18.104     23.088
REMARK  Name = Fulvestrant.pdbqt.pdb
REMARK  12 active torsions:
REMARK  status: ('A' for Active; 'I' for Inactive)
REMARK    1  A    between atoms: C_6  and  O_40
REMARK    2  A    between atoms: C_8  and  C_19
REMARK    3  A    between atoms: C_18  and  O_42
REMARK    4  A    between atoms: C_20  and  C_21
REMARK    5  A    between atoms: C_22  and  C_23
REMARK    6  A    between atoms: C_23  and  C_24
REMARK    7  A    between atoms: C_25  and  C_26
REMARK    8  A    between atoms: C_27  and  S_28
REMARK    9  A    between atoms: S_28  and  C_30
REMARK   10  A    between atoms: C_30  and  C_31
REMARK   11  A    between atoms: C_32  and  C_33
REMARK   12  A    between atoms: C_33  and  C_36
REMARK                            x       y       z     vdW  Elec       q    Type
REMARK                         _______ _______ _______ _____ _____    ______ ____
ROOT
ATOM      1  C   UNL     1      -4.164 -13.187 -14.600  0.00  0.00    +0.000 C 
ATOM      2  C   UNL     1      -4.539 -11.679 -14.200  0.00  0.00    +0.000 C 
ATOM      3  C   UNL     1      -5.181 -14.246 -14.900  0.00  0.00    +0.000 A 
ATOM      4  C   UNL     1      -6.640 -13.883 -15.248  0.00  0.00    +0.000 A 
ATOM      5  C   UNL     1      -5.903 -11.471 -14.672  0.00  0.00    +0.000 C 
ATOM      6  C   UNL     1      -3.488 -10.847 -14.968  0.00  0.00    +0.000 C 
ATOM      7  C   UNL     1      -2.963 -13.118 -15.379  0.00  0.00    +0.000 C 
ATOM      8  C   UNL     1      -4.836 -15.692 -14.897  0.00  0.00    +0.000 A 
ATOM      9  C   UNL     1      -6.894 -12.495 -15.153  0.00  0.00    +0.000 C 
ATOM     10  C   UNL     1      -2.555 -11.690 -15.630  0.00  0.00    +0.000 C 
ATOM     11  C   UNL     1      -4.359 -11.512 -12.669  0.00  0.00    +0.000 C 
ATOM     12  C   UNL     1      -7.678 -14.894 -15.595  0.00  0.00    +0.000 A 
ATOM     13  C   UNL     1      -5.952 -16.484 -15.259  0.00  0.00    +0.000 A 
ATOM     14  C   UNL     1      -7.310 -16.261 -15.600  0.00  0.00    +0.000 A 
ATOM     15  C   UNL     1      -8.992 -14.553 -15.909  0.00  0.00    +0.000 A 
ATOM     16  C   UNL     1      -8.212 -17.267 -15.908  0.00  0.00    +0.000 A 
ATOM     17  C   UNL     1      -9.911 -15.556 -16.222  0.00  0.00    +0.000 A 
ATOM     18  C   UNL     1      -9.516 -16.895 -16.218  0.00  0.00    +0.000 A 
ENDROOT
BRANCH   8  19
ATOM     19  C   UNL     1      -3.609 -16.205 -14.411  0.00  0.00    +0.000 C 
ATOM     20  C   UNL     1      -2.291 -16.767 -13.868  0.00  0.00    +0.000 C 
BRANCH  20  21
ATOM     21  C   UNL     1      -0.988 -17.336 -13.300  0.00  0.00    +0.000 C 
ATOM     22  C   UNL     1       0.320 -17.921 -12.760  0.00  0.00    +0.000 C 
BRANCH  22  23
ATOM     23  C   UNL     1       1.631 -18.526 -12.247  0.00  0.00    +0.000 C 
BRANCH  23  24
ATOM     24  C   UNL     1       2.926 -19.164 -11.733  0.00  0.00    +0.000 C 
ATOM     25  C   UNL     1       4.236 -19.769 -11.220  0.00  0.00    +0.000 C 
BRANCH  25  26
ATOM     26  C   UNL     1       5.562 -20.343 -10.711  0.00  0.00    +0.000 C 
ATOM     27  C   UNL     1       6.904 -20.908 -10.235  0.00  0.00    +0.000 C 
BRANCH  27  28
ATOM     28  S   UNL     1       8.459 -21.553  -9.720  0.00  0.00    +0.000 S 
ATOM     29  O   UNL     1       8.731 -20.360  -8.851  0.00  0.00    +0.000 OA
BRANCH  28  30
ATOM     30  C   UNL     1       7.768 -22.454  -8.374  0.00  0.00    +0.000 C 
BRANCH  30  31
ATOM     31  C   UNL     1       7.177 -23.223  -7.187  0.00  0.00    +0.000 C 
ATOM     32  C   UNL     1       6.597 -24.007  -6.004  0.00  0.00    +0.000 C 
BRANCH  32  33
ATOM     33  C   UNL     1       6.047 -24.765  -4.877  0.00  0.00    +0.000 C 
ATOM     34  F   UNL     1       6.895 -24.618  -3.820  0.00  0.00    +0.000 F 
ATOM     35  F   UNL     1       6.086 -26.087  -5.206  0.00  0.00    +0.000 F 
BRANCH  33  36
ATOM     36  C   UNL     1       4.625 -24.340  -4.498  0.00  0.00    +0.000 C 
ATOM     37  F   UNL     1       3.922 -25.359  -3.939  0.00  0.00    +0.000 F 
ATOM     38  F   UNL     1       3.915 -23.913  -5.571  0.00  0.00    +0.000 F 
ATOM     39  F   UNL     1       4.625 -23.324  -3.598  0.00  0.00    +0.000 F 
ENDBRANCH  33  36
ENDBRANCH  32  33
ENDBRANCH  30  31
ENDBRANCH  28  30
ENDBRANCH  27  28
ENDBRANCH  25  26
ENDBRANCH  23  24
ENDBRANCH  22  23
ENDBRANCH  20  21
ENDBRANCH   8  19
BRANCH   6  40
ATOM     40  O   UNL     1      -3.710  -9.544 -15.361  0.00  0.00    +0.000 OA
ATOM     41  H   UNL     1      -4.586  -9.225 -15.077  0.00  0.00    +0.000 HD
ENDBRANCH   6  40
BRANCH  18  42
ATOM     42  O   UNL     1     -10.451 -17.842 -16.529  0.00  0.00    +0.000 OA
ATOM     43  H   UNL     1     -11.166 -17.795 -15.871  0.00  0.00    +0.000 HD
ENDBRANCH  18  42
TORSDOF 12
ENDMDL
MODEL 3
REMARK VINA RESULT:      -5.9     17.687     21.842
REMARK  Name = Fulvestrant.pdbqt.pdb
REMARK  12 active torsions:
REMARK  status: ('A' for Active; 'I' for Inactive)
REMARK    1  A    between atoms: C_6  and  O_40
REMARK    2  A    between atoms: C_8  and  C_19
REMARK    3  A    between atoms: C_18  and  O_42
REMARK    4  A    between atoms: C_20  and  C_21
REMARK    5  A    between atoms: C_22  and  C_23
REMARK    6  A    between atoms: C_23  and  C_24
REMARK    7  A    between atoms: C_25  and  C_26
REMARK    8  A    between atoms: C_27  and  S_28
REMARK    9  A    between atoms: S_28  and  C_30
REMARK   10  A    between atoms: C_30  and  C_31
REMARK   11  A    between atoms: C_32  and  C_33
REMARK   12  A    between atoms: C_33  and  C_36
REMARK                            x       y       z     vdW  Elec       q    Type
REMARK                         _______ _______ _______ _____ _____    ______ ____
ROOT
ATOM      1  C   UNL     1     -13.078 -18.258   1.035  0.00  0.00    +0.000 C 
ATOM      2  C   UNL     1     -14.604 -18.415   0.568  0.00  0.00    +0.000 C 
ATOM      3  C   UNL     1     -12.531 -18.844   2.302  0.00  0.00    +0.000 A 
ATOM      4  C   UNL     1     -13.269 -19.974   3.049  0.00  0.00    +0.000 A 
ATOM      5  C   UNL     1     -15.125 -19.569   1.293  0.00  0.00    +0.000 C 
ATOM      6  C   UNL     1     -14.476 -18.651  -0.954  0.00  0.00    +0.000 C 
ATOM      7  C   UNL     1     -12.280 -18.278  -0.154  0.00  0.00    +0.000 C 
ATOM      8  C   UNL     1     -11.247 -18.381   2.893  0.00  0.00    +0.000 A 
ATOM      9  C   UNL     1     -14.514 -20.296   2.458  0.00  0.00    +0.000 C 
ATOM     10  C   UNL     1     -13.124 -18.542  -1.374  0.00  0.00    +0.000 C 
ATOM     11  C   UNL     1     -15.351 -17.087   0.856  0.00  0.00    +0.000 C 
ATOM     12  C   UNL     1     -12.749 -20.618   4.288  0.00  0.00    +0.000 A 
ATOM     13  C   UNL     1     -10.925 -19.122   4.056  0.00  0.00    +0.000 A 
ATOM     14  C   UNL     1     -11.515 -20.167   4.812  0.00  0.00    +0.000 A 
ATOM     15  C   UNL     1     -13.424 -21.640   4.952  0.00  0.00    +0.000 A 
ATOM     16  C   UNL     1     -10.958 -20.707   5.961  0.00  0.00    +0.000 A 
ATOM     17  C   UNL     1     -12.876 -22.195   6.110  0.00  0.00    +0.000 A 
ATOM     18  C   UNL     1     -11.656 -21.726   6.601  0.00  0.00    +0.000 A 
ENDROOT
BRANCH   8  19
ATOM     19  C   UNL     1     -10.549 -17.232   2.452  0.00  0.00    +0.000 C 
ATOM     20  C   UNL     1      -9.780 -16.000   1.963  0.00  0.00    +0.000 C 
BRANCH  20  21
ATOM     21  C   UNL     1      -8.992 -14.787   1.462  0.00  0.00    +0.000 C 
ATOM     22  C   UNL     1      -8.176 -13.589   0.966  0.00  0.00    +0.000 C 
BRANCH  22  23
ATOM     23  C   UNL     1      -7.332 -12.408   0.480  0.00  0.00    +0.000 C 
BRANCH  23  24
ATOM     24  C   UNL     1      -6.479 -11.244  -0.037  0.00  0.00    +0.000 C 
ATOM     25  C   UNL     1      -5.615 -10.075  -0.520  0.00  0.00    +0.000 C 
BRANCH  25  26
ATOM     26  C   UNL     1      -4.742  -8.899  -0.970  0.00  0.00    +0.000 C 
ATOM     27  C   UNL     1      -3.845  -7.748  -1.434  0.00  0.00    +0.000 C 
BRANCH  27  28
ATOM     28  S   UNL     1      -2.791  -6.447  -1.979  0.00  0.00    +0.000 S 
ATOM     29  O   UNL     1      -1.573  -7.318  -1.886  0.00  0.00    +0.000 OA
BRANCH  28  30
ATOM     30  C   UNL     1      -3.011  -6.830  -3.684  0.00  0.00    +0.000 C 
BRANCH  30  31
ATOM     31  C   UNL     1      -3.179  -7.170  -5.169  0.00  0.00    +0.000 C 
ATOM     32  C   UNL     1      -3.352  -7.528  -6.649  0.00  0.00    +0.000 C 
BRANCH  32  33
ATOM     33  C   UNL     1      -3.519  -7.879  -8.062  0.00  0.00    +0.000 C 
ATOM     34  F   UNL     1      -2.409  -8.563  -8.459  0.00  0.00    +0.000 F 
ATOM     35  F   UNL     1      -3.522  -6.722  -8.781  0.00  0.00    +0.000 F 
BRANCH  33  36
ATOM     36  C   UNL     1      -4.787  -8.694  -8.338  0.00  0.00    +0.000 C 
ATOM     37  F   UNL     1      -5.909  -7.933  -8.258  0.00  0.00    +0.000 F 
ATOM     38  F   UNL     1      -4.940  -9.716  -7.460  0.00  0.00    +0.000 F 
ATOM     39  F   UNL     1      -4.774  -9.242  -9.580  0.00  0.00    +0.000 F 
ENDBRANCH  33  36
ENDBRANCH  32  33
ENDBRANCH  30  31
ENDBRANCH  28  30
ENDBRANCH  27  28
ENDBRANCH  25  26
ENDBRANCH  23  24
ENDBRANCH  22  23
ENDBRANCH  20  21
ENDBRANCH   8  19
BRANCH   6  40
ATOM     40  O   UNL     1     -15.420 -19.342  -1.684  0.00  0.00    +0.000 OA
ATOM     41  H   UNL     1     -16.316 -18.985  -1.546  0.00  0.00    +0.000 HD
ENDBRANCH   6  40
BRANCH  18  42
ATOM     42  O   UNL     1     -11.159 -22.298   7.738  0.00  0.00    +0.000 OA
ATOM     43  H   UNL     1     -11.637 -23.131   7.896  0.00  0.00    +0.000 HD
ENDBRANCH  18  42
TORSDOF 12
ENDMDL
MODEL 4
REMARK VINA RESULT:      -5.9     19.195     20.705
REMARK  Name = Fulvestrant.pdbqt.pdb
REMARK  12 active torsions:
REMARK  status: ('A' for Active; 'I' for Inactive)
REMARK    1  A    between atoms: C_6  and  O_40
REMARK    2  A    between atoms: C_8  and  C_19
REMARK    3  A    between atoms: C_18  and  O_42
REMARK    4  A    between atoms: C_20  and  C_21
REMARK    5  A    between atoms: C_22  and  C_23
REMARK    6  A    between atoms: C_23  and  C_24
REMARK    7  A    between atoms: C_25  and  C_26
REMARK    8  A    between atoms: C_27  and  S_28
REMARK    9  A    between atoms: S_28  and  C_30
REMARK   10  A    between atoms: C_30  and  C_31
REMARK   11  A    between atoms: C_32  and  C_33
REMARK   12  A    between atoms: C_33  and  C_36
REMARK                            x       y       z     vdW  Elec       q    Type
REMARK                         _______ _______ _______ _____ _____    ______ ____
ROOT
ATOM      1  C   UNL     1      -3.381 -17.703 -16.090  0.00  0.00    +0.000 C 
ATOM      2  C   UNL     1      -1.837 -17.322 -16.301  0.00  0.00    +0.000 C 
ATOM      3  C   UNL     1      -4.078 -18.798 -16.840  0.00  0.00    +0.000 A 
ATOM      4  C   UNL     1      -3.286 -19.906 -17.566  0.00  0.00    +0.000 A 
ATOM      5  C   UNL     1      -1.219 -18.495 -16.909  0.00  0.00    +0.000 C 
ATOM      6  C   UNL     1      -1.351 -17.048 -14.860  0.00  0.00    +0.000 C 
ATOM      7  C   UNL     1      -3.667 -17.505 -14.701  0.00  0.00    +0.000 C 
ATOM      8  C   UNL     1      -5.561 -18.885 -16.908  0.00  0.00    +0.000 A 
ATOM      9  C   UNL     1      -1.887 -19.699 -17.511  0.00  0.00    +0.000 C 
ATOM     10  C   UNL     1      -2.426 -17.127 -13.935  0.00  0.00    +0.000 C 
ATOM     11  C   UNL     1      -1.755 -16.036 -17.162  0.00  0.00    +0.000 C 
ATOM     12  C   UNL     1      -3.929 -21.038 -18.290  0.00  0.00    +0.000 A 
ATOM     13  C   UNL     1      -5.972 -20.032 -17.629  0.00  0.00    +0.000 A 
ATOM     14  C   UNL     1      -5.343 -21.100 -18.318  0.00  0.00    +0.000 A 
ATOM     15  C   UNL     1      -3.202 -22.033 -18.939  0.00  0.00    +0.000 A 
ATOM     16  C   UNL     1      -6.025 -22.116 -18.969  0.00  0.00    +0.000 A 
ATOM     17  C   UNL     1      -3.875 -23.063 -19.599  0.00  0.00    +0.000 A 
ATOM     18  C   UNL     1      -5.271 -23.095 -19.609  0.00  0.00    +0.000 A 
ENDROOT
BRANCH   8  19
ATOM     19  C   UNL     1      -6.428 -17.855 -16.472  0.00  0.00    +0.000 C 
ATOM     20  C   UNL     1      -7.356 -16.740 -15.980  0.00  0.00    +0.000 C 
BRANCH  20  21
ATOM     21  C   UNL     1      -8.270 -15.626 -15.463  0.00  0.00    +0.000 C 
ATOM     22  C   UNL     1      -9.167 -14.489 -14.962  0.00  0.00    +0.000 C 
BRANCH  22  23
ATOM     23  C   UNL     1     -10.043 -13.331 -14.476  0.00  0.00    +0.000 C 
BRANCH  23  24
ATOM     24  C   UNL     1     -10.943 -12.195 -13.977  0.00  0.00    +0.000 C 
ATOM     25  C   UNL     1     -11.853 -11.081 -13.450  0.00  0.00    +0.000 C 
BRANCH  25  26
ATOM     26  C   UNL     1     -12.775  -9.989 -12.899  0.00  0.00    +0.000 C 
ATOM     27  C   UNL     1     -13.712  -8.922 -12.324  0.00  0.00    +0.000 C 
BRANCH  27  28
ATOM     28  S   UNL     1     -14.805  -7.721 -11.646  0.00  0.00    +0.000 S 
ATOM     29  O   UNL     1     -15.592  -8.767 -10.913  0.00  0.00    +0.000 OA
BRANCH  28  30
ATOM     30  C   UNL     1     -13.784  -7.417 -10.244  0.00  0.00    +0.000 C 
BRANCH  30  31
ATOM     31  C   UNL     1     -12.915  -7.154  -9.009  0.00  0.00    +0.000 C 
ATOM     32  C   UNL     1     -12.062  -6.888  -7.764  0.00  0.00    +0.000 C 
BRANCH  32  33
ATOM     33  C   UNL     1     -11.253  -6.630  -6.569  0.00  0.00    +0.000 C 
ATOM     34  F   UNL     1     -10.216  -5.824  -6.931  0.00  0.00    +0.000 F 
ATOM     35  F   UNL     1     -10.692  -7.811  -6.184  0.00  0.00    +0.000 F 
BRANCH  33  36
ATOM     36  C   UNL     1     -12.052  -6.008  -5.420  0.00  0.00    +0.000 C 
ATOM     37  F   UNL     1     -12.103  -4.654  -5.511  0.00  0.00    +0.000 F 
ATOM     38  F   UNL     1     -11.520  -6.302  -4.208  0.00  0.00    +0.000 F 
ATOM     39  F   UNL     1     -13.336  -6.448  -5.402  0.00  0.00    +0.000 F 
ENDBRANCH  33  36
ENDBRANCH  32  33
ENDBRANCH  30  31
ENDBRANCH  28  30
ENDBRANCH  27  28
ENDBRANCH  25  26
ENDBRANCH  23  24
ENDBRANCH  22  23
ENDBRANCH  20  21
ENDBRANCH   8  19
BRANCH   6  40
ATOM     40  O   UNL     1      -0.035 -17.202 -14.475  0.00  0.00    +0.000 OA
ATOM     41  H   UNL     1       0.272 -16.454 -13.933  0.00  0.00    +0.000 HD
ENDBRANCH   6  40
BRANCH  18  42
ATOM     42  O   UNL     1      -5.885 -24.122 -20.268  0.00  0.00    +0.000 OA
ATOM     43  H   UNL     1      -5.751 -23.997 -21.224  0.00  0.00    +0.000 HD
ENDBRANCH  18  42
TORSDOF 12
ENDMDL
MODEL 5
REMARK VINA RESULT:      -5.8     15.063     17.035
REMARK  Name = Fulvestrant.pdbqt.pdb
REMARK  12 active torsions:
REMARK  status: ('A' for Active; 'I' for Inactive)
REMARK    1  A    between atoms: C_6  and  O_40
REMARK    2  A    between atoms: C_8  and  C_19
REMARK    3  A    between atoms: C_18  and  O_42
REMARK    4  A    between atoms: C_20  and  C_21
REMARK    5  A    between atoms: C_22  and  C_23
REMARK    6  A    between atoms: C_23  and  C_24
REMARK    7  A    between atoms: C_25  and  C_26
REMARK    8  A    between atoms: C_27  and  S_28
REMARK    9  A    between atoms: S_28  and  C_30
REMARK   10  A    between atoms: C_30  and  C_31
REMARK   11  A    between atoms: C_32  and  C_33
REMARK   12  A    between atoms: C_33  and  C_36
REMARK                            x       y       z     vdW  Elec       q    Type
REMARK                         _______ _______ _______ _____ _____    ______ ____
ROOT
ATOM      1  C   UNL     1      -1.036 -15.656  -1.985  0.00  0.00    +0.000 C 
ATOM      2  C   UNL     1      -0.565 -14.895  -3.317  0.00  0.00    +0.000 C 
ATOM      3  C   UNL     1      -0.405 -16.917  -1.480  0.00  0.00    +0.000 A 
ATOM      4  C   UNL     1       0.994 -17.363  -1.955  0.00  0.00    +0.000 A 
ATOM      5  C   UNL     1       0.794 -15.357  -3.578  0.00  0.00    +0.000 C 
ATOM      6  C   UNL     1      -0.641 -13.407  -2.909  0.00  0.00    +0.000 C 
ATOM      7  C   UNL     1      -1.437 -14.643  -1.055  0.00  0.00    +0.000 C 
ATOM      8  C   UNL     1      -1.080 -17.792  -0.484  0.00  0.00    +0.000 A 
ATOM      9  C   UNL     1       1.525 -16.514  -2.955  0.00  0.00    +0.000 C 
ATOM     10  C   UNL     1      -1.177 -13.264  -1.602  0.00  0.00    +0.000 C 
ATOM     11  C   UNL     1      -1.575 -15.206  -4.451  0.00  0.00    +0.000 C 
ATOM     12  C   UNL     1       1.684 -18.585  -1.453  0.00  0.00    +0.000 A 
ATOM     13  C   UNL     1      -0.260 -18.890  -0.131  0.00  0.00    +0.000 A 
ATOM     14  C   UNL     1       1.020 -19.383  -0.492  0.00  0.00    +0.000 A 
ATOM     15  C   UNL     1       2.948 -18.974  -1.889  0.00  0.00    +0.000 A 
ATOM     16  C   UNL     1       1.585 -20.537   0.027  0.00  0.00    +0.000 A 
ATOM     17  C   UNL     1       3.531 -20.134  -1.375  0.00  0.00    +0.000 A 
ATOM     18  C   UNL     1       2.848 -20.900  -0.428  0.00  0.00    +0.000 A 
ENDROOT
BRANCH   8  19
ATOM     19  C   UNL     1      -2.433 -17.639  -0.096  0.00  0.00    +0.000 C 
ATOM     20  C   UNL     1      -3.900 -17.494   0.318  0.00  0.00    +0.000 C 
BRANCH  20  21
ATOM     21  C   UNL     1      -5.373 -17.376   0.722  0.00  0.00    +0.000 C 
ATOM     22  C   UNL     1      -6.854 -17.264   1.095  0.00  0.00    +0.000 C 
BRANCH  22  23
ATOM     23  C   UNL     1      -8.343 -17.155   1.435  0.00  0.00    +0.000 C 
BRANCH  23  24
ATOM     24  C   UNL     1      -9.826 -17.022   1.801  0.00  0.00    +0.000 C 
ATOM     25  C   UNL     1     -11.309 -16.860   2.146  0.00  0.00    +0.000 C 
BRANCH  25  26
ATOM     26  C   UNL     1     -12.794 -16.667   2.473  0.00  0.00    +0.000 C 
ATOM     27  C   UNL     1     -14.284 -16.469   2.764  0.00  0.00    +0.000 C 
BRANCH  27  28
ATOM     28  S   UNL     1     -16.003 -16.233   3.064  0.00  0.00    +0.000 S 
ATOM     29  O   UNL     1     -15.843 -14.744   3.142  0.00  0.00    +0.000 OA
BRANCH  28  30
ATOM     30  C   UNL     1     -16.409 -16.163   1.352  0.00  0.00    +0.000 C 
BRANCH  30  31
ATOM     31  C   UNL     1     -16.739 -16.104  -0.143  0.00  0.00    +0.000 C 
ATOM     32  C   UNL     1     -17.082 -16.030  -1.635  0.00  0.00    +0.000 C 
BRANCH  32  33
ATOM     33  C   UNL     1     -17.417 -15.954  -3.060  0.00  0.00    +0.000 C 
ATOM     34  F   UNL     1     -17.570 -14.639  -3.385  0.00  0.00    +0.000 F 
ATOM     35  F   UNL     1     -18.641 -16.526  -3.231  0.00  0.00    +0.000 F 
BRANCH  33  36
ATOM     36  C   UNL     1     -16.375 -16.620  -3.964  0.00  0.00    +0.000 C 
ATOM     37  F   UNL     1     -16.199 -17.932  -3.658  0.00  0.00    +0.000 F 
ATOM     38  F   UNL     1     -15.159 -16.027  -3.867  0.00  0.00    +0.000 F 
ATOM     39  F   UNL     1     -16.734 -16.567  -5.272  0.00  0.00    +0.000 F 
ENDBRANCH  33  36
ENDBRANCH  32  33
ENDBRANCH  30  31
ENDBRANCH  28  30
ENDBRANCH  27  28
ENDBRANCH  25  26
ENDBRANCH  23  24
ENDBRANCH  22  23
ENDBRANCH  20  21
ENDBRANCH   8  19
BRANCH   6  40
ATOM     40  O   UNL     1       0.137 -12.432  -3.497  0.00  0.00    +0.000 OA
ATOM     41  H   UNL     1      -0.271 -11.551  -3.422  0.00  0.00    +0.000 HD
ENDBRANCH   6  40
BRANCH  18  42
ATOM     42  O   UNL     1       3.458 -22.027   0.046  0.00  0.00    +0.000 OA
ATOM     43  H   UNL     1       4.132 -21.762   0.696  0.00  0.00    +0.000 HD
ENDBRANCH  18  42
TORSDOF 12
ENDMDL
MODEL 6
REMARK VINA RESULT:      -5.8     17.062     24.437
REMARK  Name = Fulvestrant.pdbqt.pdb
REMARK  12 active torsions:
REMARK  status: ('A' for Active; 'I' for Inactive)
REMARK    1  A    between atoms: C_6  and  O_40
REMARK    2  A    between atoms: C_8  and  C_19
REMARK    3  A    between atoms: C_18  and  O_42
REMARK    4  A    between atoms: C_20  and  C_21
REMARK    5  A    between atoms: C_22  and  C_23
REMARK    6  A    between atoms: C_23  and  C_24
REMARK    7  A    between atoms: C_25  and  C_26
REMARK    8  A    between atoms: C_27  and  S_28
REMARK    9  A    between atoms: S_28  and  C_30
REMARK   10  A    between atoms: C_30  and  C_31
REMARK   11  A    between atoms: C_32  and  C_33
REMARK   12  A    between atoms: C_33  and  C_36
REMARK                            x       y       z     vdW  Elec       q    Type
REMARK                         _______ _______ _______ _____ _____    ______ ____
ROOT
ATOM      1  C   UNL     1      -6.214 -11.299   1.857  0.00  0.00    +0.000 C 
ATOM      2  C   UNL     1      -6.048 -10.202   3.016  0.00  0.00    +0.000 C 
ATOM      3  C   UNL     1      -7.038 -12.543   2.000  0.00  0.00    +0.000 A 
ATOM      4  C   UNL     1      -8.111 -12.674   3.102  0.00  0.00    +0.000 A 
ATOM      5  C   UNL     1      -7.178 -10.402   3.917  0.00  0.00    +0.000 C 
ATOM      6  C   UNL     1      -6.110  -8.868   2.238  0.00  0.00    +0.000 C 
ATOM      7  C   UNL     1      -6.221 -10.586   0.614  0.00  0.00    +0.000 C 
ATOM      8  C   UNL     1      -6.880 -13.703   1.083  0.00  0.00    +0.000 A 
ATOM      9  C   UNL     1      -8.139 -11.557   3.971  0.00  0.00    +0.000 C 
ATOM     10  C   UNL     1      -6.182  -9.097   0.838  0.00  0.00    +0.000 C 
ATOM     11  C   UNL     1      -4.660 -10.386   3.679  0.00  0.00    +0.000 C 
ATOM     12  C   UNL     1      -8.985 -13.870   3.262  0.00  0.00    +0.000 A 
ATOM     13  C   UNL     1      -7.804 -14.729   1.394  0.00  0.00    +0.000 A 
ATOM     14  C   UNL     1      -8.819 -14.948   2.359  0.00  0.00    +0.000 A 
ATOM     15  C   UNL     1      -9.951 -13.975   4.259  0.00  0.00    +0.000 A 
ATOM     16  C   UNL     1      -9.586 -16.100   2.436  0.00  0.00    +0.000 A 
ATOM     17  C   UNL     1     -10.732 -15.129   4.349  0.00  0.00    +0.000 A 
ATOM     18  C   UNL     1     -10.543 -16.174   3.443  0.00  0.00    +0.000 A 
ENDROOT
BRANCH   8  19
ATOM     19  C   UNL     1      -5.820 -13.828   0.154  0.00  0.00    +0.000 C 
ATOM     20  C   UNL     1      -4.684 -13.953  -0.867  0.00  0.00    +0.000 C 
BRANCH  20  21
ATOM     21  C   UNL     1      -3.566 -14.064  -1.907  0.00  0.00    +0.000 C 
ATOM     22  C   UNL     1      -2.428 -14.187  -2.925  0.00  0.00    +0.000 C 
BRANCH  22  23
ATOM     23  C   UNL     1      -1.269 -14.321  -3.918  0.00  0.00    +0.000 C 
BRANCH  23  24
ATOM     24  C   UNL     1      -0.134 -14.454  -4.938  0.00  0.00    +0.000 C 
ATOM     25  C   UNL     1       0.986 -14.562  -5.978  0.00  0.00    +0.000 C 
BRANCH  25  26
ATOM     26  C   UNL     1       2.088 -14.647  -7.039  0.00  0.00    +0.000 C 
ATOM     27  C   UNL     1       3.183 -14.769  -8.103  0.00  0.00    +0.000 C 
BRANCH  27  28
ATOM     28  S   UNL     1       4.439 -14.944  -9.324  0.00  0.00    +0.000 S 
ATOM     29  O   UNL     1       5.201 -15.924  -8.482  0.00  0.00    +0.000 OA
BRANCH  28  30
ATOM     30  C   UNL     1       3.593 -16.235 -10.172  0.00  0.00    +0.000 C 
BRANCH  30  31
ATOM     31  C   UNL     1       2.858 -17.372 -10.891  0.00  0.00    +0.000 C 
ATOM     32  C   UNL     1       2.109 -18.496 -11.614  0.00  0.00    +0.000 C 
BRANCH  32  33
ATOM     33  C   UNL     1       1.386 -19.566 -12.308  0.00  0.00    +0.000 C 
ATOM     34  F   UNL     1       0.610 -18.992 -13.270  0.00  0.00    +0.000 F 
ATOM     35  F   UNL     1       0.522 -20.129 -11.417  0.00  0.00    +0.000 F 
BRANCH  33  36
ATOM     36  C   UNL     1       2.309 -20.627 -12.914  0.00  0.00    +0.000 C 
ATOM     37  F   UNL     1       3.586 -20.507 -12.467  0.00  0.00    +0.000 F 
ATOM     38  F   UNL     1       2.357 -20.551 -14.268  0.00  0.00    +0.000 F 
ATOM     39  F   UNL     1       1.903 -21.885 -12.606  0.00  0.00    +0.000 F 
ENDBRANCH  33  36
ENDBRANCH  32  33
ENDBRANCH  30  31
ENDBRANCH  28  30
ENDBRANCH  27  28
ENDBRANCH  25  26
ENDBRANCH  23  24
ENDBRANCH  22  23
ENDBRANCH  20  21
ENDBRANCH   8  19
BRANCH   6  40
ATOM     40  O   UNL     1      -6.533  -7.688   2.814  0.00  0.00    +0.000 OA
ATOM     41  H   UNL     1      -5.866  -6.984   2.726  0.00  0.00    +0.000 HD
ENDBRANCH   6  40
BRANCH  18  42
ATOM     42  O   UNL     1     -11.330 -17.284   3.571  0.00  0.00    +0.000 OA
ATOM     43  H   UNL     1     -11.457 -17.463   4.519  0.00  0.00    +0.000 HD
ENDBRANCH  18  42
TORSDOF 12
ENDMDL
MODEL 7
REMARK VINA RESULT:      -5.7      9.216     16.625
REMARK  Name = Fulvestrant.pdbqt.pdb
REMARK  12 active torsions:
REMARK  status: ('A' for Active; 'I' for Inactive)
REMARK    1  A    between atoms: C_6  and  O_40
REMARK    2  A    between atoms: C_8  and  C_19
REMARK    3  A    between atoms: C_18  and  O_42
REMARK    4  A    between atoms: C_20  and  C_21
REMARK    5  A    between atoms: C_22  and  C_23
REMARK    6  A    between atoms: C_23  and  C_24
REMARK    7  A    between atoms: C_25  and  C_26
REMARK    8  A    between atoms: C_27  and  S_28
REMARK    9  A    between atoms: S_28  and  C_30
REMARK   10  A    between atoms: C_30  and  C_31
REMARK   11  A    between atoms: C_32  and  C_33
REMARK   12  A    between atoms: C_33  and  C_36
REMARK                            x       y       z     vdW  Elec       q    Type
REMARK                         _______ _______ _______ _____ _____    ______ ____
ROOT
ATOM      1  C   UNL     1      -6.606 -31.838   8.477  0.00  0.00    +0.000 C 
ATOM      2  C   UNL     1      -6.071 -32.766   9.671  0.00  0.00    +0.000 C 
ATOM      3  C   UNL     1      -7.513 -30.662   8.679  0.00  0.00    +0.000 A 
ATOM      4  C   UNL     1      -7.679 -30.004  10.064  0.00  0.00    +0.000 A 
ATOM      5  C   UNL     1      -6.214 -31.971  10.886  0.00  0.00    +0.000 C 
ATOM      6  C   UNL     1      -4.601 -33.025   9.274  0.00  0.00    +0.000 C 
ATOM      7  C   UNL     1      -5.547 -31.757   7.515  0.00  0.00    +0.000 C 
ATOM      8  C   UNL     1      -8.284 -30.061   7.558  0.00  0.00    +0.000 A 
ATOM      9  C   UNL     1      -6.971 -30.687  11.081  0.00  0.00    +0.000 C 
ATOM     10  C   UNL     1      -4.308 -32.460   8.004  0.00  0.00    +0.000 C 
ATOM     11  C   UNL     1      -6.880 -34.089   9.672  0.00  0.00    +0.000 C 
ATOM     12  C   UNL     1      -8.536 -28.809  10.310  0.00  0.00    +0.000 A 
ATOM     13  C   UNL     1      -9.024 -28.936   7.994  0.00  0.00    +0.000 A 
ATOM     14  C   UNL     1      -9.239 -28.251   9.217  0.00  0.00    +0.000 A 
ATOM     15  C   UNL     1      -8.675 -28.223  11.566  0.00  0.00    +0.000 A 
ATOM     16  C   UNL     1     -10.060 -27.143   9.355  0.00  0.00    +0.000 A 
ATOM     17  C   UNL     1      -9.497 -27.105  11.721  0.00  0.00    +0.000 A 
ATOM     18  C   UNL     1     -10.179 -26.579  10.622  0.00  0.00    +0.000 A 
ENDROOT
BRANCH   8  19
ATOM     19  C   UNL     1      -8.401 -30.655   6.278  0.00  0.00    +0.000 C 
ATOM     20  C   UNL     1      -8.511 -31.286   4.887  0.00  0.00    +0.000 C 
BRANCH  20  21
ATOM     21  C   UNL     1      -8.600 -31.898   3.486  0.00  0.00    +0.000 C 
ATOM     22  C   UNL     1      -8.674 -32.536   2.095  0.00  0.00    +0.000 C 
BRANCH  22  23
ATOM     23  C   UNL     1      -8.728 -33.200   0.716  0.00  0.00    +0.000 C 
BRANCH  23  24
ATOM     24  C   UNL     1      -8.746 -33.864  -0.664  0.00  0.00    +0.000 C 
ATOM     25  C   UNL     1      -8.755 -34.560  -2.029  0.00  0.00    +0.000 C 
BRANCH  25  26
ATOM     26  C   UNL     1      -8.752 -35.285  -3.379  0.00  0.00    +0.000 C 
ATOM     27  C   UNL     1      -8.722 -35.986  -4.740  0.00  0.00    +0.000 C 
BRANCH  27  28
ATOM     28  S   UNL     1      -8.666 -36.768  -6.316  0.00  0.00    +0.000 S 
ATOM     29  O   UNL     1      -9.534 -35.713  -6.935  0.00  0.00    +0.000 OA
BRANCH  28  30
ATOM     30  C   UNL     1      -7.195 -35.933  -6.805  0.00  0.00    +0.000 C 
BRANCH  30  31
ATOM     31  C   UNL     1      -5.918 -35.189  -7.213  0.00  0.00    +0.000 C 
ATOM     32  C   UNL     1      -4.646 -34.447  -7.639  0.00  0.00    +0.000 C 
BRANCH  32  33
ATOM     33  C   UNL     1      -3.433 -33.739  -8.055  0.00  0.00    +0.000 C 
ATOM     34  F   UNL     1      -2.856 -34.453  -9.063  0.00  0.00    +0.000 F 
ATOM     35  F   UNL     1      -2.551 -33.779  -7.018  0.00  0.00    +0.000 F 
BRANCH  33  36
ATOM     36  C   UNL     1      -3.693 -32.294  -8.492  0.00  0.00    +0.000 C 
ATOM     37  F   UNL     1      -4.716 -32.208  -9.381  0.00  0.00    +0.000 F 
ATOM     38  F   UNL     1      -2.609 -31.734  -9.083  0.00  0.00    +0.000 F 
ATOM     39  F   UNL     1      -4.021 -31.501  -7.440  0.00  0.00    +0.000 F 
ENDBRANCH  33  36
ENDBRANCH  32  33
ENDBRANCH  30  31
ENDBRANCH  28  30
ENDBRANCH  27  28
ENDBRANCH  25  26
ENDBRANCH  23  24
ENDBRANCH  22  23
ENDBRANCH  20  21
ENDBRANCH   8  19
BRANCH   6  40
ATOM     40  O   UNL     1      -3.617 -33.306  10.199  0.00  0.00    +0.000 OA
ATOM     41  H   UNL     1      -3.992 -33.608  11.045  0.00  0.00    +0.000 HD
ENDBRANCH   6  40
BRANCH  18  42
ATOM     42  O   UNL     1     -10.973 -25.486  10.822  0.00  0.00    +0.000 OA
ATOM     43  H   UNL     1     -10.645 -24.761  10.261  0.00  0.00    +0.000 HD
ENDBRANCH  18  42
TORSDOF 12
ENDMDL
MODEL 8
REMARK VINA RESULT:      -5.6      1.523      2.090
REMARK  Name = Fulvestrant.pdbqt.pdb
REMARK  12 active torsions:
REMARK  status: ('A' for Active; 'I' for Inactive)
REMARK    1  A    between atoms: C_6  and  O_40
REMARK    2  A    between atoms: C_8  and  C_19
REMARK    3  A    between atoms: C_18  and  O_42
REMARK    4  A    between atoms: C_20  and  C_21
REMARK    5  A    between atoms: C_22  and  C_23
REMARK    6  A    between atoms: C_23  and  C_24
REMARK    7  A    between atoms: C_25  and  C_26
REMARK    8  A    between atoms: C_27  and  S_28
REMARK    9  A    between atoms: S_28  and  C_30
REMARK   10  A    between atoms: C_30  and  C_31
REMARK   11  A    between atoms: C_32  and  C_33
REMARK   12  A    between atoms: C_33  and  C_36
REMARK                            x       y       z     vdW  Elec       q    Type
REMARK                         _______ _______ _______ _____ _____    ______ ____
ROOT
ATOM      1  C   UNL     1      -4.283 -36.565  -3.499  0.00  0.00    +0.000 C 
ATOM      2  C   UNL     1      -3.138 -37.550  -2.957  0.00  0.00    +0.000 C 
ATOM      3  C   UNL     1      -4.169 -35.775  -4.767  0.00  0.00    +0.000 A 
ATOM      4  C   UNL     1      -3.138 -36.145  -5.855  0.00  0.00    +0.000 A 
ATOM      5  C   UNL     1      -2.310 -37.871  -4.114  0.00  0.00    +0.000 C 
ATOM      6  C   UNL     1      -3.945 -38.756  -2.425  0.00  0.00    +0.000 C 
ATOM      7  C   UNL     1      -5.537 -37.161  -3.147  0.00  0.00    +0.000 C 
ATOM      8  C   UNL     1      -5.050 -34.611  -5.052  0.00  0.00    +0.000 A 
ATOM      9  C   UNL     1      -2.295 -37.213  -5.466  0.00  0.00    +0.000 C 
ATOM     10  C   UNL     1      -5.342 -38.513  -2.511  0.00  0.00    +0.000 C 
ATOM     11  C   UNL     1      -2.381 -36.845  -1.803  0.00  0.00    +0.000 C 
ATOM     12  C   UNL     1      -3.011 -35.418  -7.150  0.00  0.00    +0.000 A 
ATOM     13  C   UNL     1      -4.780 -34.068  -6.331  0.00  0.00    +0.000 A 
ATOM     14  C   UNL     1      -3.879 -34.328  -7.395  0.00  0.00    +0.000 A 
ATOM     15  C   UNL     1      -2.078 -35.764  -8.124  0.00  0.00    +0.000 A 
ATOM     16  C   UNL     1      -3.830 -33.595  -8.570  0.00  0.00    +0.000 A 
ATOM     17  C   UNL     1      -2.017 -35.035  -9.313  0.00  0.00    +0.000 A 
ATOM     18  C   UNL     1      -2.887 -33.964  -9.524  0.00  0.00    +0.000 A 
ENDROOT
BRANCH   8  19
ATOM     19  C   UNL     1      -5.905 -34.021  -4.091  0.00  0.00    +0.000 C 
ATOM     20  C   UNL     1      -6.844 -33.376  -3.066  0.00  0.00    +0.000 C 
BRANCH  20  21
ATOM     21  C   UNL     1      -7.799 -32.722  -2.064  0.00  0.00    +0.000 C 
ATOM     22  C   UNL     1      -8.779 -32.085  -1.074  0.00  0.00    +0.000 C 
BRANCH  22  23
ATOM     23  C   UNL     1      -9.784 -31.464  -0.100  0.00  0.00    +0.000 C 
BRANCH  23  24
ATOM     24  C   UNL     1     -10.796 -30.875   0.889  0.00  0.00    +0.000 C 
ATOM     25  C   UNL     1     -11.787 -30.257   1.880  0.00  0.00    +0.000 C 
BRANCH  25  26
ATOM     26  C   UNL     1     -12.755 -29.612   2.877  0.00  0.00    +0.000 C 
ATOM     27  C   UNL     1     -13.752 -28.978   3.852  0.00  0.00    +0.000 C 
BRANCH  27  28
ATOM     28  S   UNL     1     -14.924 -28.256   4.950  0.00  0.00    +0.000 S 
ATOM     29  O   UNL     1     -13.849 -27.816   5.899  0.00  0.00    +0.000 OA
BRANCH  28  30
ATOM     30  C   UNL     1     -14.915 -26.703   4.120  0.00  0.00    +0.000 C 
BRANCH  30  31
ATOM     31  C   UNL     1     -14.884 -25.350   3.402  0.00  0.00    +0.000 C 
ATOM     32  C   UNL     1     -14.839 -24.003   2.671  0.00  0.00    +0.000 C 
BRANCH  32  33
ATOM     33  C   UNL     1     -14.789 -22.718   1.968  0.00  0.00    +0.000 C 
ATOM     34  F   UNL     1     -15.906 -22.013   2.302  0.00  0.00    +0.000 F 
ATOM     35  F   UNL     1     -14.892 -22.970   0.633  0.00  0.00    +0.000 F 
BRANCH  33  36
ATOM     36  C   UNL     1     -13.523 -21.910   2.272  0.00  0.00    +0.000 C 
ATOM     37  F   UNL     1     -12.578 -22.660   2.895  0.00  0.00    +0.000 F 
ATOM     38  F   UNL     1     -13.775 -20.847   3.075  0.00  0.00    +0.000 F 
ATOM     39  F   UNL     1     -12.953 -21.421   1.141  0.00  0.00    +0.000 F 
ENDBRANCH  33  36
ENDBRANCH  32  33
ENDBRANCH  30  31
ENDBRANCH  28  30
ENDBRANCH  27  28
ENDBRANCH  25  26
ENDBRANCH  23  24
ENDBRANCH  22  23
ENDBRANCH  20  21
ENDBRANCH   8  19
BRANCH   6  40
ATOM     40  O   UNL     1      -3.422 -40.030  -2.355  0.00  0.00    +0.000 OA
ATOM     41  H   UNL     1      -3.049 -40.315  -3.208  0.00  0.00    +0.000 HD
ENDBRANCH   6  40
BRANCH  18  42
ATOM     42  O   UNL     1      -2.789 -33.280 -10.703  0.00  0.00    +0.000 OA
ATOM     43  H   UNL     1      -2.849 -32.328 -10.511  0.00  0.00    +0.000 HD
ENDBRANCH  18  42
TORSDOF 12
ENDMDL
MODEL 9
REMARK VINA RESULT:      -5.5     15.832     20.099
REMARK  Name = Fulvestrant.pdbqt.pdb
REMARK  12 active torsions:
REMARK  status: ('A' for Active; 'I' for Inactive)
REMARK    1  A    between atoms: C_6  and  O_40
REMARK    2  A    between atoms: C_8  and  C_19
REMARK    3  A    between atoms: C_18  and  O_42
REMARK    4  A    between atoms: C_20  and  C_21
REMARK    5  A    between atoms: C_22  and  C_23
REMARK    6  A    between atoms: C_23  and  C_24
REMARK    7  A    between atoms: C_25  and  C_26
REMARK    8  A    between atoms: C_27  and  S_28
REMARK    9  A    between atoms: S_28  and  C_30
REMARK   10  A    between atoms: C_30  and  C_31
REMARK   11  A    between atoms: C_32  and  C_33
REMARK   12  A    between atoms: C_33  and  C_36
REMARK                            x       y       z     vdW  Elec       q    Type
REMARK                         _______ _______ _______ _____ _____    ______ ____
ROOT
ATOM      1  C   UNL     1       3.129 -36.419  10.732  0.00  0.00    +0.000 C 
ATOM      2  C   UNL     1       3.641 -36.046  12.206  0.00  0.00    +0.000 C 
ATOM      3  C   UNL     1       2.981 -37.825  10.234  0.00  0.00    +0.000 A 
ATOM      4  C   UNL     1       2.914 -39.020  11.208  0.00  0.00    +0.000 A 
ATOM      5  C   UNL     1       3.429 -37.241  13.015  0.00  0.00    +0.000 C 
ATOM      6  C   UNL     1       2.725 -34.866  12.600  0.00  0.00    +0.000 C 
ATOM      7  C   UNL     1       2.150 -35.436  10.377  0.00  0.00    +0.000 C 
ATOM      8  C   UNL     1       2.874 -38.140   8.785  0.00  0.00    +0.000 A 
ATOM      9  C   UNL     1       3.100 -38.635  12.557  0.00  0.00    +0.000 C 
ATOM     10  C   UNL     1       1.878 -34.496  11.521  0.00  0.00    +0.000 C 
ATOM     11  C   UNL     1       5.119 -35.587  12.118  0.00  0.00    +0.000 C 
ATOM     12  C   UNL     1       2.726 -40.431  10.768  0.00  0.00    +0.000 A 
ATOM     13  C   UNL     1       2.692 -39.528   8.576  0.00  0.00    +0.000 A 
ATOM     14  C   UNL     1       2.608 -40.692   9.382  0.00  0.00    +0.000 A 
ATOM     15  C   UNL     1       2.664 -41.501  11.658  0.00  0.00    +0.000 A 
ATOM     16  C   UNL     1       2.434 -41.973   8.884  0.00  0.00    +0.000 A 
ATOM     17  C   UNL     1       2.488 -42.797  11.171  0.00  0.00    +0.000 A 
ATOM     18  C   UNL     1       2.376 -43.021   9.798  0.00  0.00    +0.000 A 
ENDROOT
BRANCH   8  19
ATOM     19  C   UNL     1       3.113 -37.196   7.758  0.00  0.00    +0.000 C 
ATOM     20  C   UNL     1       3.357 -36.162   6.654  0.00  0.00    +0.000 C 
BRANCH  20  21
ATOM     21  C   UNL     1       3.577 -35.113   5.561  0.00  0.00    +0.000 C 
ATOM     22  C   UNL     1       3.768 -34.066   4.458  0.00  0.00    +0.000 C 
BRANCH  22  23
ATOM     23  C   UNL     1       3.926 -33.027   3.344  0.00  0.00    +0.000 C 
BRANCH  23  24
ATOM     24  C   UNL     1       4.055 -31.970   2.242  0.00  0.00    +0.000 C 
ATOM     25  C   UNL     1       4.190 -30.889   1.166  0.00  0.00    +0.000 C 
BRANCH  25  26
ATOM     26  C   UNL     1       4.329 -29.783   0.114  0.00  0.00    +0.000 C 
ATOM     27  C   UNL     1       4.492 -28.661  -0.916  0.00  0.00    +0.000 C 
BRANCH  27  28
ATOM     28  S   UNL     1       4.701 -27.355  -2.077  0.00  0.00    +0.000 S 
ATOM     29  O   UNL     1       6.181 -27.301  -1.836  0.00  0.00    +0.000 OA
BRANCH  28  30
ATOM     30  C   UNL     1       4.900 -28.448  -3.443  0.00  0.00    +0.000 C 
BRANCH  30  31
ATOM     31  C   UNL     1       5.073 -29.418  -4.617  0.00  0.00    +0.000 C 
ATOM     32  C   UNL     1       5.252 -30.374  -5.802  0.00  0.00    +0.000 C 
BRANCH  32  33
ATOM     33  C   UNL     1       5.424 -31.280  -6.940  0.00  0.00    +0.000 C 
ATOM     34  F   UNL     1       5.329 -32.558  -6.477  0.00  0.00    +0.000 F 
ATOM     35  F   UNL     1       6.702 -31.141  -7.393  0.00  0.00    +0.000 F 
BRANCH  33  36
ATOM     36  C   UNL     1       4.418 -31.034  -8.069  0.00  0.00    +0.000 C 
ATOM     37  F   UNL     1       3.148 -30.923  -7.603  0.00  0.00    +0.000 F 
ATOM     38  F   UNL     1       4.417 -32.036  -8.982  0.00  0.00    +0.000 F 
ATOM     39  F   UNL     1       4.689 -29.888  -8.744  0.00  0.00    +0.000 F 
ENDBRANCH  33  36
ENDBRANCH  32  33
ENDBRANCH  30  31
ENDBRANCH  28  30
ENDBRANCH  27  28
ENDBRANCH  25  26
ENDBRANCH  23  24
ENDBRANCH  22  23
ENDBRANCH  20  21
ENDBRANCH   8  19
BRANCH   6  40
ATOM     40  O   UNL     1       2.423 -34.561  13.911  0.00  0.00    +0.000 OA
ATOM     41  H   UNL     1       2.631 -33.634  14.124  0.00  0.00    +0.000 HD
ENDBRANCH   6  40
BRANCH  18  42
ATOM     42  O   UNL     1       2.206 -44.307   9.368  0.00  0.00    +0.000 OA
ATOM     43  H   UNL     1       3.083 -44.687   9.182  0.00  0.00    +0.000 HD
ENDBRANCH  18  42
TORSDOF 12
ENDMDL
