MODEL 1
REMARK VINA RESULT:      -5.5      0.000      0.000
REMARK  Name = Gefitinib.pdbqt.pdb
REMARK  6 active torsions:
REMARK  status: ('A' for Active; 'I' for Inactive)
REMARK    1  A    between atoms: C_3  and  O_11
REMARK    2  A    between atoms: C_6  and  O_21
REMARK    3  A    between atoms: O_11  and  C_12
REMARK    4  A    between atoms: C_13  and  C_14
REMARK    5  A    between atoms: C_14  and  N_15
REMARK    6  A    between atoms: N_23  and  C_25
REMARK                            x       y       z     vdW  Elec       q    Type
REMARK                         _______ _______ _______ _____ _____    ______ ____
ROOT
ATOM      1  N   UNL     1      -2.946 -31.963  -8.650  0.00  0.00    +0.000 NA
ATOM      2  N   UNL     1      -4.525 -32.480  -6.942  0.00  0.00    +0.000 NA
ATOM      3  C   UNL     1      -1.875 -35.968  -8.992  0.00  0.00    +0.000 A 
ATOM      4  C   UNL     1      -3.243 -34.230  -7.950  0.00  0.00    +0.000 A 
ATOM      5  C   UNL     1      -2.857 -35.575  -8.082  0.00  0.00    +0.000 A 
ATOM      6  C   UNL     1      -1.269 -34.997  -9.790  0.00  0.00    +0.000 A 
ATOM      7  C   UNL     1      -2.630 -33.255  -8.740  0.00  0.00    +0.000 A 
ATOM      8  C   UNL     1      -1.659 -33.660  -9.646  0.00  0.00    +0.000 A 
ATOM      9  C   UNL     1      -4.218 -33.783  -7.047  0.00  0.00    +0.000 A 
ATOM     10  C   UNL     1      -3.879 -31.630  -7.749  0.00  0.00    +0.000 A 
ATOM     11  N   UNL     1      -4.857 -34.726  -6.203  0.00  0.00    +0.000 N 
ATOM     12  H   UNL     1      -5.153 -35.544  -6.726  0.00  0.00    +0.000 HD
ENDROOT
BRANCH  11  13
ATOM     13  C   UNL     1      -5.705 -34.470  -5.102  0.00  0.00    +0.000 A 
ATOM     14  C   UNL     1      -7.067 -34.773  -5.212  0.00  0.00    +0.000 A 
ATOM     15  C   UNL     1      -7.922 -34.636  -4.121  0.00  0.00    +0.000 A 
ATOM     16 CL   UNL     1      -9.590 -34.991  -4.326  0.00  0.00    +0.000 Cl
ATOM     17  C   UNL     1      -7.416 -34.221  -2.894  0.00  0.00    +0.000 A 
ATOM     18  F   UNL     1      -8.223 -34.083  -1.832  0.00  0.00    +0.000 F 
ATOM     19  C   UNL     1      -6.062 -33.951  -2.748  0.00  0.00    +0.000 A 
ATOM     20  C   UNL     1      -5.215 -34.094  -3.846  0.00  0.00    +0.000 A 
ENDBRANCH  11  13
BRANCH   6  21
ATOM     21  O   UNL     1      -0.306 -35.426 -10.673  0.00  0.00    +0.000 OA
ATOM     22  C   UNL     1       0.884 -34.688 -10.679  0.00  0.00    +0.000 C 
ENDBRANCH   6  21
BRANCH   3  23
ATOM     23  O   UNL     1      -1.471 -37.271  -9.150  0.00  0.00    +0.000 OA
BRANCH  23  24
ATOM     24  C   UNL     1      -1.393 -37.971  -8.020  0.00  0.00    +0.000 C 
ATOM     25  C   UNL     1      -1.315 -38.765  -6.712  0.00  0.00    +0.000 C 
BRANCH  25  26
ATOM     26  C   UNL     1      -1.264 -39.539  -5.390  0.00  0.00    +0.000 C 
BRANCH  26  27
ATOM     27  N   UNL     1      -1.217 -40.263  -4.127  0.00  0.00    +0.000 N 
ATOM     28  C   UNL     1       0.218 -40.597  -3.879  0.00  0.00    +0.000 C 
ATOM     29  C   UNL     1       1.189 -40.011  -2.802  0.00  0.00    +0.000 C 
ATOM     30  O   UNL     1       1.075 -39.085  -1.824  0.00  0.00    +0.000 OA
ATOM     31  C   UNL     1      -0.220 -38.783  -2.048  0.00  0.00    +0.000 C 
ATOM     32  C   UNL     1      -1.329 -39.241  -3.044  0.00  0.00    +0.000 C 
ENDBRANCH  26  27
ENDBRANCH  25  26
ENDBRANCH  23  24
ENDBRANCH   3  23
TORSDOF 6
ENDMDL
MODEL 2
REMARK VINA RESULT:      -5.5      5.619      8.928
REMARK  Name = Gefitinib.pdbqt.pdb
REMARK  6 active torsions:
REMARK  status: ('A' for Active; 'I' for Inactive)
REMARK    1  A    between atoms: C_3  and  O_11
REMARK    2  A    between atoms: C_6  and  O_21
REMARK    3  A    between atoms: O_11  and  C_12
REMARK    4  A    between atoms: C_13  and  C_14
REMARK    5  A    between atoms: C_14  and  N_15
REMARK    6  A    between atoms: N_23  and  C_25
REMARK                            x       y       z     vdW  Elec       q    Type
REMARK                         _______ _______ _______ _____ _____    ______ ____
ROOT
ATOM      1  N   UNL     1       3.797 -36.607 -10.342  0.00  0.00    +0.000 NA
ATOM      2  N   UNL     1       3.900 -34.241 -10.604  0.00  0.00    +0.000 NA
ATOM      3  C   UNL     1      -0.349 -36.478 -10.027  0.00  0.00    +0.000 A 
ATOM      4  C   UNL     1       1.782 -35.320 -10.339  0.00  0.00    +0.000 A 
ATOM      5  C   UNL     1       0.381 -35.305 -10.223  0.00  0.00    +0.000 A 
ATOM      6  C   UNL     1       0.334 -37.692  -9.950  0.00  0.00    +0.000 A 
ATOM      7  C   UNL     1       2.469 -36.533 -10.252  0.00  0.00    +0.000 A 
ATOM      8  C   UNL     1       1.730 -37.693 -10.062  0.00  0.00    +0.000 A 
ATOM      9  C   UNL     1       2.561 -34.171 -10.530  0.00  0.00    +0.000 A 
ATOM     10  C   UNL     1       4.457 -35.454 -10.509  0.00  0.00    +0.000 A 
ATOM     11  N   UNL     1       1.919 -32.908 -10.603  0.00  0.00    +0.000 N 
ATOM     12  H   UNL     1       1.114 -32.943 -11.221  0.00  0.00    +0.000 HD
ENDROOT
BRANCH  11  13
ATOM     13  C   UNL     1       2.517 -31.629 -10.589  0.00  0.00    +0.000 A 
ATOM     14  C   UNL     1       2.458 -30.841 -11.744  0.00  0.00    +0.000 A 
ATOM     15  C   UNL     1       2.940 -29.534 -11.746  0.00  0.00    +0.000 A 
ATOM     16 CL   UNL     1       2.871 -28.627 -13.203  0.00  0.00    +0.000 Cl
ATOM     17  C   UNL     1       3.463 -28.988 -10.579  0.00  0.00    +0.000 A 
ATOM     18  F   UNL     1       3.933 -27.732 -10.560  0.00  0.00    +0.000 F 
ATOM     19  C   UNL     1       3.498 -29.736  -9.409  0.00  0.00    +0.000 A 
ATOM     20  C   UNL     1       3.010 -31.041  -9.418  0.00  0.00    +0.000 A 
ENDBRANCH  11  13
BRANCH   6  21
ATOM     21  O   UNL     1      -0.423 -38.823  -9.755  0.00  0.00    +0.000 OA
ATOM     22  C   UNL     1       0.145 -40.019 -10.212  0.00  0.00    +0.000 C 
ENDBRANCH   6  21
BRANCH   3  23
ATOM     23  O   UNL     1      -1.718 -36.504  -9.909  0.00  0.00    +0.000 OA
BRANCH  23  24
ATOM     24  C   UNL     1      -2.209 -35.719  -8.953  0.00  0.00    +0.000 C 
ATOM     25  C   UNL     1      -2.766 -34.825  -7.839  0.00  0.00    +0.000 C 
BRANCH  25  26
ATOM     26  C   UNL     1      -3.306 -33.951  -6.702  0.00  0.00    +0.000 C 
BRANCH  26  27
ATOM     27  N   UNL     1      -3.811 -33.128  -5.612  0.00  0.00    +0.000 N 
ATOM     28  C   UNL     1      -5.302 -33.168  -5.702  0.00  0.00    +0.000 C 
ATOM     29  C   UNL     1      -6.323 -33.868  -4.746  0.00  0.00    +0.000 C 
ATOM     30  O   UNL     1      -6.216 -34.611  -3.623  0.00  0.00    +0.000 OA
ATOM     31  C   UNL     1      -4.871 -34.575  -3.542  0.00  0.00    +0.000 C 
ATOM     32  C   UNL     1      -3.708 -33.951  -4.370  0.00  0.00    +0.000 C 
ENDBRANCH  26  27
ENDBRANCH  25  26
ENDBRANCH  23  24
ENDBRANCH   3  23
TORSDOF 6
ENDMDL
MODEL 3
REMARK VINA RESULT:      -5.4      6.234      9.583
REMARK  Name = Gefitinib.pdbqt.pdb
REMARK  6 active torsions:
REMARK  status: ('A' for Active; 'I' for Inactive)
REMARK    1  A    between atoms: C_3  and  O_11
REMARK    2  A    between atoms: C_6  and  O_21
REMARK    3  A    between atoms: O_11  and  C_12
REMARK    4  A    between atoms: C_13  and  C_14
REMARK    5  A    between atoms: C_14  and  N_15
REMARK    6  A    between atoms: N_23  and  C_25
REMARK                            x       y       z     vdW  Elec       q    Type
REMARK                         _______ _______ _______ _____ _____    ______ ____
ROOT
ATOM      1  N   UNL     1       4.428 -34.614 -10.636  0.00  0.00    +0.000 NA
ATOM      2  N   UNL     1       5.228 -32.796  -9.320  0.00  0.00    +0.000 NA
ATOM      3  C   UNL     1       0.761 -32.723 -11.173  0.00  0.00    +0.000 A 
ATOM      4  C   UNL     1       3.020 -32.722 -10.238  0.00  0.00    +0.000 A 
ATOM      5  C   UNL     1       1.770 -32.109 -10.430  0.00  0.00    +0.000 A 
ATOM      6  C   UNL     1       1.008 -33.974 -11.740  0.00  0.00    +0.000 A 
ATOM      7  C   UNL     1       3.266 -33.979 -10.795  0.00  0.00    +0.000 A 
ATOM      8  C   UNL     1       2.255 -34.577 -11.537  0.00  0.00    +0.000 A 
ATOM      9  C   UNL     1       4.063 -32.152  -9.496  0.00  0.00    +0.000 A 
ATOM     10  C   UNL     1       5.358 -33.996  -9.899  0.00  0.00    +0.000 A 
ATOM     11  N   UNL     1       3.862 -30.886  -8.888  0.00  0.00    +0.000 N 
ATOM     12  H   UNL     1       3.439 -30.231  -9.538  0.00  0.00    +0.000 HD
ENDROOT
BRANCH  11  13
ATOM     13  C   UNL     1       4.691 -30.234  -7.947  0.00  0.00    +0.000 A 
ATOM     14  C   UNL     1       4.504 -30.495  -6.585  0.00  0.00    +0.000 A 
ATOM     15  C   UNL     1       5.362 -29.958  -5.628  0.00  0.00    +0.000 A 
ATOM     16 CL   UNL     1       5.062 -30.288  -3.969  0.00  0.00    +0.000 Cl
ATOM     17  C   UNL     1       6.439 -29.174  -6.027  0.00  0.00    +0.000 A 
ATOM     18  F   UNL     1       7.276 -28.648  -5.121  0.00  0.00    +0.000 F 
ATOM     19  C   UNL     1       6.669 -28.932  -7.375  0.00  0.00    +0.000 A 
ATOM     20  C   UNL     1       5.806 -29.476  -8.323  0.00  0.00    +0.000 A 
ENDBRANCH  11  13
BRANCH   6  21
ATOM     21  O   UNL     1      -0.013 -34.545 -12.463  0.00  0.00    +0.000 OA
ATOM     22  C   UNL     1      -0.557 -35.717 -11.925  0.00  0.00    +0.000 C 
ENDBRANCH   6  21
BRANCH   3  23
ATOM     23  O   UNL     1      -0.473 -32.156 -11.383  0.00  0.00    +0.000 OA
BRANCH  23  24
ATOM     24  C   UNL     1      -1.310 -32.249 -10.353  0.00  0.00    +0.000 C 
ATOM     25  C   UNL     1      -2.278 -32.338  -9.167  0.00  0.00    +0.000 C 
BRANCH  25  26
ATOM     26  C   UNL     1      -3.255 -32.394  -7.988  0.00  0.00    +0.000 C 
BRANCH  26  27
ATOM     27  N   UNL     1      -4.195 -32.443  -6.877  0.00  0.00    +0.000 N 
ATOM     28  C   UNL     1      -5.395 -33.189  -7.365  0.00  0.00    +0.000 C 
ATOM     29  C   UNL     1      -5.891 -34.617  -6.965  0.00  0.00    +0.000 C 
ATOM     30  O   UNL     1      -5.444 -35.577  -6.126  0.00  0.00    +0.000 OA
ATOM     31  C   UNL     1      -4.361 -34.905  -5.686  0.00  0.00    +0.000 C 
ATOM     32  C   UNL     1      -3.712 -33.514  -5.954  0.00  0.00    +0.000 C 
ENDBRANCH  26  27
ENDBRANCH  25  26
ENDBRANCH  23  24
ENDBRANCH   3  23
TORSDOF 6
ENDMDL
MODEL 4
REMARK VINA RESULT:      -5.3      4.716      6.364
REMARK  Name = Gefitinib.pdbqt.pdb
REMARK  6 active torsions:
REMARK  status: ('A' for Active; 'I' for Inactive)
REMARK    1  A    between atoms: C_3  and  O_11
REMARK    2  A    between atoms: C_6  and  O_21
REMARK    3  A    between atoms: O_11  and  C_12
REMARK    4  A    between atoms: C_13  and  C_14
REMARK    5  A    between atoms: C_14  and  N_15
REMARK    6  A    between atoms: N_23  and  C_25
REMARK                            x       y       z     vdW  Elec       q    Type
REMARK                         _______ _______ _______ _____ _____    ______ ____
ROOT
ATOM      1  N   UNL     1     -10.097 -35.639  -4.978  0.00  0.00    +0.000 NA
ATOM      2  N   UNL     1     -10.414 -34.437  -2.945  0.00  0.00    +0.000 NA
ATOM      3  C   UNL     1      -5.993 -34.973  -4.830  0.00  0.00    +0.000 A 
ATOM      4  C   UNL     1      -8.213 -34.700  -3.842  0.00  0.00    +0.000 A 
ATOM      5  C   UNL     1      -6.824 -34.485  -3.821  0.00  0.00    +0.000 A 
ATOM      6  C   UNL     1      -6.560 -35.695  -5.880  0.00  0.00    +0.000 A 
ATOM      7  C   UNL     1      -8.785 -35.414  -4.898  0.00  0.00    +0.000 A 
ATOM      8  C   UNL     1      -7.945 -35.899  -5.893  0.00  0.00    +0.000 A 
ATOM      9  C   UNL     1      -9.091 -34.227  -2.858  0.00  0.00    +0.000 A 
ATOM     10  C   UNL     1     -10.857 -35.134  -3.998  0.00  0.00    +0.000 A 
ATOM     11  N   UNL     1      -8.569 -33.476  -1.774  0.00  0.00    +0.000 N 
ATOM     12  H   UNL     1      -7.746 -33.923  -1.382  0.00  0.00    +0.000 HD
ENDROOT
BRANCH  11  13
ATOM     13  C   UNL     1      -9.285 -32.746  -0.800  0.00  0.00    +0.000 A 
ATOM     14  C   UNL     1      -9.616 -33.372   0.408  0.00  0.00    +0.000 A 
ATOM     15  C   UNL     1     -10.228 -32.663   1.438  0.00  0.00    +0.000 A 
ATOM     16 CL   UNL     1     -10.640 -33.493   2.885  0.00  0.00    +0.000 Cl
ATOM     17  C   UNL     1     -10.492 -31.307   1.283  0.00  0.00    +0.000 A 
ATOM     18  F   UNL     1     -11.082 -30.607   2.264  0.00  0.00    +0.000 F 
ATOM     19  C   UNL     1     -10.140 -30.653   0.110  0.00  0.00    +0.000 A 
ATOM     20  C   UNL     1      -9.525 -31.372  -0.913  0.00  0.00    +0.000 A 
ENDBRANCH  11  13
BRANCH   6  21
ATOM     21  O   UNL     1      -5.706 -36.157  -6.854  0.00  0.00    +0.000 OA
ATOM     22  C   UNL     1      -5.743 -35.466  -8.071  0.00  0.00    +0.000 C 
ENDBRANCH   6  21
BRANCH   3  23
ATOM     23  O   UNL     1      -4.632 -34.783  -4.844  0.00  0.00    +0.000 OA
BRANCH  23  24
ATOM     24  C   UNL     1      -3.973 -35.410  -3.872  0.00  0.00    +0.000 C 
ATOM     25  C   UNL     1      -3.225 -36.146  -2.755  0.00  0.00    +0.000 C 
BRANCH  25  26
ATOM     26  C   UNL     1      -2.497 -36.911  -1.645  0.00  0.00    +0.000 C 
BRANCH  26  27
ATOM     27  N   UNL     1      -1.817 -37.641  -0.584  0.00  0.00    +0.000 N 
ATOM     28  C   UNL     1      -2.011 -36.851   0.670  0.00  0.00    +0.000 C 
ATOM     29  C   UNL     1      -2.886 -37.195   1.920  0.00  0.00    +0.000 C 
ATOM     30  O   UNL     1      -3.695 -38.223   2.258  0.00  0.00    +0.000 OA
ATOM     31  C   UNL     1      -3.521 -38.935   1.127  0.00  0.00    +0.000 C 
ATOM     32  C   UNL     1      -2.715 -38.770  -0.196  0.00  0.00    +0.000 C 
ENDBRANCH  26  27
ENDBRANCH  25  26
ENDBRANCH  23  24
ENDBRANCH   3  23
TORSDOF 6
ENDMDL
MODEL 5
REMARK VINA RESULT:      -4.9      5.913      9.076
REMARK  Name = Gefitinib.pdbqt.pdb
REMARK  6 active torsions:
REMARK  status: ('A' for Active; 'I' for Inactive)
REMARK    1  A    between atoms: C_3  and  O_11
REMARK    2  A    between atoms: C_6  and  O_21
REMARK    3  A    between atoms: O_11  and  C_12
REMARK    4  A    between atoms: C_13  and  C_14
REMARK    5  A    between atoms: C_14  and  N_15
REMARK    6  A    between atoms: N_23  and  C_25
REMARK                            x       y       z     vdW  Elec       q    Type
REMARK                         _______ _______ _______ _____ _____    ______ ____
ROOT
ATOM      1  N   UNL     1       1.035 -31.151 -14.125  0.00  0.00    +0.000 NA
ATOM      2  N   UNL     1       2.418 -30.809 -12.215  0.00  0.00    +0.000 NA
ATOM      3  C   UNL     1      -1.376 -33.801 -12.011  0.00  0.00    +0.000 A 
ATOM      4  C   UNL     1       0.537 -32.281 -12.077  0.00  0.00    +0.000 A 
ATOM      5  C   UNL     1      -0.290 -33.185 -11.388  0.00  0.00    +0.000 A 
ATOM      6  C   UNL     1      -1.644 -33.504 -13.348  0.00  0.00    +0.000 A 
ATOM      7  C   UNL     1       0.278 -31.990 -13.418  0.00  0.00    +0.000 A 
ATOM      8  C   UNL     1      -0.810 -32.606 -14.024  0.00  0.00    +0.000 A 
ATOM      9  C   UNL     1       1.643 -31.641 -11.500  0.00  0.00    +0.000 A 
ATOM     10  C   UNL     1       2.078 -30.600 -13.492  0.00  0.00    +0.000 A 
ATOM     11  N   UNL     1       1.968 -31.915 -10.147  0.00  0.00    +0.000 N 
ATOM     12  H   UNL     1       1.142 -31.877  -9.558  0.00  0.00    +0.000 HD
ENDROOT
BRANCH  11  13
ATOM     13  C   UNL     1       3.135 -31.543  -9.443  0.00  0.00    +0.000 A 
ATOM     14  C   UNL     1       4.305 -32.287  -9.632  0.00  0.00    +0.000 A 
ATOM     15  C   UNL     1       5.505 -31.897  -9.041  0.00  0.00    +0.000 A 
ATOM     16 CL   UNL     1       6.901 -32.868  -9.283  0.00  0.00    +0.000 Cl
ATOM     17  C   UNL     1       5.554 -30.738  -8.275  0.00  0.00    +0.000 A 
ATOM     18  F   UNL     1       6.700 -30.346  -7.698  0.00  0.00    +0.000 F 
ATOM     19  C   UNL     1       4.416 -29.961  -8.104  0.00  0.00    +0.000 A 
ATOM     20  C   UNL     1       3.222 -30.359  -8.702  0.00  0.00    +0.000 A 
ENDBRANCH  11  13
BRANCH   6  21
ATOM     21  O   UNL     1      -2.723 -34.134 -13.923  0.00  0.00    +0.000 OA
ATOM     22  C   UNL     1      -3.084 -33.677 -15.196  0.00  0.00    +0.000 C 
ENDBRANCH   6  21
BRANCH   3  23
ATOM     23  O   UNL     1      -2.208 -34.689 -11.372  0.00  0.00    +0.000 OA
BRANCH  23  24
ATOM     24  C   UNL     1      -2.669 -34.271 -10.195  0.00  0.00    +0.000 C 
ATOM     25  C   UNL     1      -3.186 -33.779  -8.839  0.00  0.00    +0.000 C 
BRANCH  25  26
ATOM     26  C   UNL     1      -3.677 -33.262  -7.483  0.00  0.00    +0.000 C 
BRANCH  26  27
ATOM     27  N   UNL     1      -4.153 -32.762  -6.200  0.00  0.00    +0.000 N 
ATOM     28  C   UNL     1      -5.578 -33.196  -6.074  0.00  0.00    +0.000 C 
ATOM     29  C   UNL     1      -6.195 -34.268  -5.118  0.00  0.00    +0.000 C 
ATOM     30  O   UNL     1      -5.697 -35.097  -4.174  0.00  0.00    +0.000 OA
ATOM     31  C   UNL     1      -4.412 -34.707  -4.288  0.00  0.00    +0.000 C 
ATOM     32  C   UNL     1      -3.617 -33.684  -5.155  0.00  0.00    +0.000 C 
ENDBRANCH  26  27
ENDBRANCH  25  26
ENDBRANCH  23  24
ENDBRANCH   3  23
TORSDOF 6
ENDMDL
MODEL 6
REMARK VINA RESULT:      -4.9      4.418      7.784
REMARK  Name = Gefitinib.pdbqt.pdb
REMARK  6 active torsions:
REMARK  status: ('A' for Active; 'I' for Inactive)
REMARK    1  A    between atoms: C_3  and  O_11
REMARK    2  A    between atoms: C_6  and  O_21
REMARK    3  A    between atoms: O_11  and  C_12
REMARK    4  A    between atoms: C_13  and  C_14
REMARK    5  A    between atoms: C_14  and  N_15
REMARK    6  A    between atoms: N_23  and  C_25
REMARK                            x       y       z     vdW  Elec       q    Type
REMARK                         _______ _______ _______ _____ _____    ______ ____
ROOT
ATOM      1  N   UNL     1       3.601 -35.861 -10.625  0.00  0.00    +0.000 NA
ATOM      2  N   UNL     1       2.110 -37.576  -9.909  0.00  0.00    +0.000 NA
ATOM      3  C   UNL     1       0.494 -33.098 -10.759  0.00  0.00    +0.000 A 
ATOM      4  C   UNL     1       1.283 -35.366 -10.303  0.00  0.00    +0.000 A 
ATOM      5  C   UNL     1       0.251 -34.414 -10.364  0.00  0.00    +0.000 A 
ATOM      6  C   UNL     1       1.795 -32.724 -11.096  0.00  0.00    +0.000 A 
ATOM      7  C   UNL     1       2.585 -34.998 -10.651  0.00  0.00    +0.000 A 
ATOM      8  C   UNL     1       2.813 -33.683 -11.037  0.00  0.00    +0.000 A 
ATOM      9  C   UNL     1       1.092 -36.701  -9.920  0.00  0.00    +0.000 A 
ATOM     10  C   UNL     1       3.317 -37.117 -10.259  0.00  0.00    +0.000 A 
ATOM     11  N   UNL     1      -0.213 -37.138  -9.578  0.00  0.00    +0.000 N 
ATOM     12  H   UNL     1      -0.666 -36.480  -8.950  0.00  0.00    +0.000 HD
ENDROOT
BRANCH  11  13
ATOM     13  C   UNL     1      -0.657 -38.462  -9.363  0.00  0.00    +0.000 A 
ATOM     14  C   UNL     1      -0.811 -38.919  -8.049  0.00  0.00    +0.000 A 
ATOM     15  C   UNL     1      -1.344 -40.179  -7.787  0.00  0.00    +0.000 A 
ATOM     16 CL   UNL     1      -1.478 -40.699  -6.155  0.00  0.00    +0.000 Cl
ATOM     17  C   UNL     1      -1.757 -40.988  -8.840  0.00  0.00    +0.000 A 
ATOM     18  F   UNL     1      -2.272 -42.204  -8.608  0.00  0.00    +0.000 F 
ATOM     19  C   UNL     1      -1.650 -40.542 -10.151  0.00  0.00    +0.000 A 
ATOM     20  C   UNL     1      -1.119 -39.279 -10.401  0.00  0.00    +0.000 A 
ENDBRANCH  11  13
BRANCH   6  21
ATOM     21  O   UNL     1       1.990 -31.418 -11.481  0.00  0.00    +0.000 OA
ATOM     22  C   UNL     1       2.343 -31.227 -12.823  0.00  0.00    +0.000 C 
ENDBRANCH   6  21
BRANCH   3  23
ATOM     23  O   UNL     1      -0.487 -32.139 -10.830  0.00  0.00    +0.000 OA
BRANCH  23  24
ATOM     24  C   UNL     1      -1.446 -32.255  -9.914  0.00  0.00    +0.000 C 
ATOM     25  C   UNL     1      -2.555 -32.372  -8.863  0.00  0.00    +0.000 C 
BRANCH  25  26
ATOM     26  C   UNL     1      -3.678 -32.458  -7.823  0.00  0.00    +0.000 C 
BRANCH  26  27
ATOM     27  N   UNL     1      -4.754 -32.538  -6.845  0.00  0.00    +0.000 N 
ATOM     28  C   UNL     1      -5.733 -33.539  -7.368  0.00  0.00    +0.000 C 
ATOM     29  C   UNL     1      -6.050 -34.973  -6.830  0.00  0.00    +0.000 C 
ATOM     30  O   UNL     1      -5.587 -35.728  -5.810  0.00  0.00    +0.000 OA
ATOM     31  C   UNL     1      -4.704 -34.826  -5.339  0.00  0.00    +0.000 C 
ATOM     32  C   UNL     1      -4.251 -33.384  -5.722  0.00  0.00    +0.000 C 
ENDBRANCH  26  27
ENDBRANCH  25  26
ENDBRANCH  23  24
ENDBRANCH   3  23
TORSDOF 6
ENDMDL
MODEL 7
REMARK VINA RESULT:      -4.9      8.372     11.283
REMARK  Name = Gefitinib.pdbqt.pdb
REMARK  6 active torsions:
REMARK  status: ('A' for Active; 'I' for Inactive)
REMARK    1  A    between atoms: C_3  and  O_11
REMARK    2  A    between atoms: C_6  and  O_21
REMARK    3  A    between atoms: O_11  and  C_12
REMARK    4  A    between atoms: C_13  and  C_14
REMARK    5  A    between atoms: C_14  and  N_15
REMARK    6  A    between atoms: N_23  and  C_25
REMARK                            x       y       z     vdW  Elec       q    Type
REMARK                         _______ _______ _______ _____ _____    ______ ____
ROOT
ATOM      1  N   UNL     1      -2.275 -28.649 -19.170  0.00  0.00    +0.000 NA
ATOM      2  N   UNL     1      -4.199 -28.476 -17.776  0.00  0.00    +0.000 NA
ATOM      3  C   UNL     1       0.234 -28.647 -15.852  0.00  0.00    +0.000 A 
ATOM      4  C   UNL     1      -2.021 -28.577 -16.793  0.00  0.00    +0.000 A 
ATOM      5  C   UNL     1      -1.149 -28.572 -15.690  0.00  0.00    +0.000 A 
ATOM      6  C   UNL     1       0.759 -28.733 -17.143  0.00  0.00    +0.000 A 
ATOM      7  C   UNL     1      -1.498 -28.653 -18.087  0.00  0.00    +0.000 A 
ATOM      8  C   UNL     1      -0.120 -28.732 -18.233  0.00  0.00    +0.000 A 
ATOM      9  C   UNL     1      -3.416 -28.498 -16.686  0.00  0.00    +0.000 A 
ATOM     10  C   UNL     1      -3.595 -28.555 -18.967  0.00  0.00    +0.000 A 
ATOM     11  N   UNL     1      -4.002 -28.397 -15.398  0.00  0.00    +0.000 N 
ATOM     12  H   UNL     1      -3.597 -29.073 -14.758  0.00  0.00    +0.000 HD
ENDROOT
BRANCH  11  13
ATOM     13  C   UNL     1      -5.347 -28.107 -15.077  0.00  0.00    +0.000 A 
ATOM     14  C   UNL     1      -6.002 -27.082 -15.769  0.00  0.00    +0.000 A 
ATOM     15  C   UNL     1      -7.356 -26.830 -15.561  0.00  0.00    +0.000 A 
ATOM     16 CL   UNL     1      -8.098 -25.537 -16.415  0.00  0.00    +0.000 Cl
ATOM     17  C   UNL     1      -8.080 -27.622 -14.677  0.00  0.00    +0.000 A 
ATOM     18  F   UNL     1      -9.384 -27.395 -14.464  0.00  0.00    +0.000 F 
ATOM     19  C   UNL     1      -7.462 -28.670 -14.007  0.00  0.00    +0.000 A 
ATOM     20  C   UNL     1      -6.108 -28.915 -14.225  0.00  0.00    +0.000 A 
ENDBRANCH  11  13
BRANCH   6  21
ATOM     21  O   UNL     1       2.127 -28.804 -17.257  0.00  0.00    +0.000 OA
ATOM     22  C   UNL     1       2.640 -30.046 -17.652  0.00  0.00    +0.000 C 
ENDBRANCH   6  21
BRANCH   3  23
ATOM     23  O   UNL     1       1.118 -28.645 -14.800  0.00  0.00    +0.000 OA
BRANCH  23  24
ATOM     24  C   UNL     1       0.890 -29.580 -13.880  0.00  0.00    +0.000 C 
ATOM     25  C   UNL     1       0.633 -30.668 -12.832  0.00  0.00    +0.000 C 
BRANCH  25  26
ATOM     26  C   UNL     1       0.394 -31.779 -11.804  0.00  0.00    +0.000 C 
BRANCH  26  27
ATOM     27  N   UNL     1       0.175 -32.844 -10.836  0.00  0.00    +0.000 N 
ATOM     28  C   UNL     1      -0.984 -32.423  -9.991  0.00  0.00    +0.000 C 
ATOM     29  C   UNL     1      -2.432 -33.010  -9.951  0.00  0.00    +0.000 C 
ATOM     30  O   UNL     1      -3.073 -34.002 -10.608  0.00  0.00    +0.000 OA
ATOM     31  C   UNL     1      -2.028 -34.382 -11.371  0.00  0.00    +0.000 C 
ATOM     32  C   UNL     1      -0.546 -33.937 -11.555  0.00  0.00    +0.000 C 
ENDBRANCH  26  27
ENDBRANCH  25  26
ENDBRANCH  23  24
ENDBRANCH   3  23
TORSDOF 6
ENDMDL
MODEL 8
REMARK VINA RESULT:      -4.8     11.102     14.360
REMARK  Name = Gefitinib.pdbqt.pdb
REMARK  6 active torsions:
REMARK  status: ('A' for Active; 'I' for Inactive)
REMARK    1  A    between atoms: C_3  and  O_11
REMARK    2  A    between atoms: C_6  and  O_21
REMARK    3  A    between atoms: O_11  and  C_12
REMARK    4  A    between atoms: C_13  and  C_14
REMARK    5  A    between atoms: C_14  and  N_15
REMARK    6  A    between atoms: N_23  and  C_25
REMARK                            x       y       z     vdW  Elec       q    Type
REMARK                         _______ _______ _______ _____ _____    ______ ____
ROOT
ATOM      1  N   UNL     1      -8.622 -29.482   8.103  0.00  0.00    +0.000 NA
ATOM      2  N   UNL     1      -6.625 -30.564   8.822  0.00  0.00    +0.000 NA
ATOM      3  C   UNL     1      -8.804 -31.884   4.711  0.00  0.00    +0.000 A 
ATOM      4  C   UNL     1      -7.689 -31.253   6.793  0.00  0.00    +0.000 A 
ATOM      5  C   UNL     1      -7.771 -32.046   5.636  0.00  0.00    +0.000 A 
ATOM      6  C   UNL     1      -9.776 -30.913   4.950  0.00  0.00    +0.000 A 
ATOM      7  C   UNL     1      -8.656 -30.272   7.029  0.00  0.00    +0.000 A 
ATOM      8  C   UNL     1      -9.680 -30.126   6.103  0.00  0.00    +0.000 A 
ATOM      9  C   UNL     1      -6.671 -31.370   7.749  0.00  0.00    +0.000 A 
ATOM     10  C   UNL     1      -7.602 -29.659   8.952  0.00  0.00    +0.000 A 
ATOM     11  N   UNL     1      -5.649 -32.334   7.551  0.00  0.00    +0.000 N 
ATOM     12  H   UNL     1      -6.041 -33.232   7.282  0.00  0.00    +0.000 HD
ENDROOT
BRANCH  11  13
ATOM     13  C   UNL     1      -4.442 -32.480   8.271  0.00  0.00    +0.000 A 
ATOM     14  C   UNL     1      -4.345 -33.494   9.231  0.00  0.00    +0.000 A 
ATOM     15  C   UNL     1      -3.144 -33.743   9.890  0.00  0.00    +0.000 A 
ATOM     16 CL   UNL     1      -3.095 -34.978  11.083  0.00  0.00    +0.000 Cl
ATOM     17  C   UNL     1      -2.014 -32.997   9.575  0.00  0.00    +0.000 A 
ATOM     18  F   UNL     1      -0.848 -33.222  10.199  0.00  0.00    +0.000 F 
ATOM     19  C   UNL     1      -2.074 -32.012   8.598  0.00  0.00    +0.000 A 
ATOM     20  C   UNL     1      -3.280 -31.773   7.942  0.00  0.00    +0.000 A 
ENDBRANCH  11  13
BRANCH   6  21
ATOM     21  O   UNL     1     -10.775 -30.786   4.013  0.00  0.00    +0.000 OA
ATOM     22  C   UNL     1     -11.797 -29.885   4.334  0.00  0.00    +0.000 C 
ENDBRANCH   6  21
BRANCH   3  23
ATOM     23  O   UNL     1      -8.919 -32.640   3.570  0.00  0.00    +0.000 OA
BRANCH  23  24
ATOM     24  C   UNL     1      -8.309 -33.823   3.621  0.00  0.00    +0.000 C 
ATOM     25  C   UNL     1      -7.610 -35.184   3.699  0.00  0.00    +0.000 C 
BRANCH  25  26
ATOM     26  C   UNL     1      -6.918 -36.547   3.811  0.00  0.00    +0.000 C 
BRANCH  26  27
ATOM     27  N   UNL     1      -6.258 -37.842   3.903  0.00  0.00    +0.000 N 
ATOM     28  C   UNL     1      -6.190 -38.386   2.513  0.00  0.00    +0.000 C 
ATOM     29  C   UNL     1      -4.939 -38.573   1.593  0.00  0.00    +0.000 C 
ATOM     30  O   UNL     1      -3.618 -38.322   1.725  0.00  0.00    +0.000 OA
ATOM     31  C   UNL     1      -3.679 -37.830   2.979  0.00  0.00    +0.000 C 
ATOM     32  C   UNL     1      -4.796 -37.569   4.035  0.00  0.00    +0.000 C 
ENDBRANCH  26  27
ENDBRANCH  25  26
ENDBRANCH  23  24
ENDBRANCH   3  23
TORSDOF 6
ENDMDL
MODEL 9
REMARK VINA RESULT:      -4.7     18.973     21.603
REMARK  Name = Gefitinib.pdbqt.pdb
REMARK  6 active torsions:
REMARK  status: ('A' for Active; 'I' for Inactive)
REMARK    1  A    between atoms: C_3  and  O_11
REMARK    2  A    between atoms: C_6  and  O_21
REMARK    3  A    between atoms: O_11  and  C_12
REMARK    4  A    between atoms: C_13  and  C_14
REMARK    5  A    between atoms: C_14  and  N_15
REMARK    6  A    between atoms: N_23  and  C_25
REMARK                            x       y       z     vdW  Elec       q    Type
REMARK                         _______ _______ _______ _____ _____    ______ ____
ROOT
ATOM      1  N   UNL     1     -13.487 -23.788   3.489  0.00  0.00    +0.000 NA
ATOM      2  N   UNL     1     -13.199 -21.659   2.459  0.00  0.00    +0.000 NA
ATOM      3  C   UNL     1     -16.422 -24.823   0.729  0.00  0.00    +0.000 A 
ATOM      4  C   UNL     1     -14.788 -23.210   1.568  0.00  0.00    +0.000 A 
ATOM      5  C   UNL     1     -15.788 -23.583   0.653  0.00  0.00    +0.000 A 
ATOM      6  C   UNL     1     -16.047 -25.711   1.738  0.00  0.00    +0.000 A 
ATOM      7  C   UNL     1     -14.419 -24.093   2.586  0.00  0.00    +0.000 A 
ATOM      8  C   UNL     1     -15.054 -25.326   2.646  0.00  0.00    +0.000 A 
ATOM      9  C   UNL     1     -14.126 -21.975   1.540  0.00  0.00    +0.000 A 
ATOM     10  C   UNL     1     -12.920 -22.579   3.389  0.00  0.00    +0.000 A 
ATOM     11  N   UNL     1     -14.476 -21.029   0.542  0.00  0.00    +0.000 N 
ATOM     12  H   UNL     1     -14.531 -21.466  -0.373  0.00  0.00    +0.000 HD
ENDROOT
BRANCH  11  13
ATOM     13  C   UNL     1     -14.086 -19.674   0.456  0.00  0.00    +0.000 A 
ATOM     14  C   UNL     1     -14.914 -18.695   1.019  0.00  0.00    +0.000 A 
ATOM     15  C   UNL     1     -14.522 -17.359   1.051  0.00  0.00    +0.000 A 
ATOM     16 CL   UNL     1     -15.594 -16.197   1.725  0.00  0.00    +0.000 Cl
ATOM     17  C   UNL     1     -13.281 -16.989   0.545  0.00  0.00    +0.000 A 
ATOM     18  F   UNL     1     -12.886 -15.708   0.567  0.00  0.00    +0.000 F 
ATOM     19  C   UNL     1     -12.425 -17.947   0.017  0.00  0.00    +0.000 A 
ATOM     20  C   UNL     1     -12.826 -19.281  -0.008  0.00  0.00    +0.000 A 
ENDBRANCH  11  13
BRANCH   6  21
ATOM     21  O   UNL     1     -16.698 -26.922   1.777  0.00  0.00    +0.000 OA
ATOM     22  C   UNL     1     -16.346 -27.766   2.838  0.00  0.00    +0.000 C 
ENDBRANCH   6  21
BRANCH   3  23
ATOM     23  O   UNL     1     -17.402 -25.224  -0.147  0.00  0.00    +0.000 OA
BRANCH  23  24
ATOM     24  C   UNL     1     -17.982 -24.236  -0.823  0.00  0.00    +0.000 C 
ATOM     25  C   UNL     1     -18.655 -23.089  -1.586  0.00  0.00    +0.000 C 
BRANCH  25  26
ATOM     26  C   UNL     1     -19.331 -21.925  -2.318  0.00  0.00    +0.000 C 
BRANCH  26  27
ATOM     27  N   UNL     1     -19.967 -20.823  -3.027  0.00  0.00    +0.000 N 
ATOM     28  C   UNL     1     -19.414 -19.564  -2.443  0.00  0.00    +0.000 C 
ATOM     29  C   UNL     1     -18.440 -18.528  -3.094  0.00  0.00    +0.000 C 
ATOM     30  O   UNL     1     -17.818 -18.430  -4.290  0.00  0.00    +0.000 OA
ATOM     31  C   UNL     1     -18.316 -19.566  -4.816  0.00  0.00    +0.000 C 
ATOM     32  C   UNL     1     -19.273 -20.703  -4.344  0.00  0.00    +0.000 C 
ENDBRANCH  26  27
ENDBRANCH  25  26
ENDBRANCH  23  24
ENDBRANCH   3  23
TORSDOF 6
ENDMDL
