MODEL 1
REMARK VINA RESULT:      -5.2      0.000      0.000
REMARK  Name = Genistein.pdbqt.pdb
REMARK  4 active torsions:
REMARK  status: ('A' for Active; 'I' for Inactive)
REMARK    1  A    between atoms: C_4  and  C_12
REMARK    2  A    between atoms: C_7  and  O_20
REMARK    3  A    between atoms: C_11  and  O_22
REMARK    4  A    between atoms: C_17  and  O_18
REMARK                            x       y       z     vdW  Elec       q    Type
REMARK                         _______ _______ _______ _____ _____    ______ ____
ROOT
ATOM      1  O   UNL     1       0.058 -19.810 -14.613  0.00  0.00    +0.000 OA
ATOM      2  O   UNL     1       0.426 -16.448 -12.150  0.00  0.00    +0.000 OA
ATOM      3  C   UNL     1       1.172 -18.629 -12.735  0.00  0.00    +0.000 A 
ATOM      4  C   UNL     1      -0.728 -17.503 -13.992  0.00  0.00    +0.000 A 
ATOM      5  C   UNL     1       1.011 -19.753 -13.597  0.00  0.00    +0.000 A 
ATOM      6  C   UNL     1       0.288 -17.414 -12.891  0.00  0.00    +0.000 A 
ATOM      7  C   UNL     1       2.156 -18.663 -11.743  0.00  0.00    +0.000 A 
ATOM      8  C   UNL     1      -0.587 -18.658 -14.561  0.00  0.00    +0.000 A 
ATOM      9  C   UNL     1       1.825 -20.873 -13.452  0.00  0.00    +0.000 A 
ATOM     10  C   UNL     1       2.968 -19.788 -11.604  0.00  0.00    +0.000 A 
ATOM     11  C   UNL     1       2.797 -20.877 -12.456  0.00  0.00    +0.000 A 
ENDROOT
BRANCH   4  12
ATOM     12  C   UNL     1      -1.706 -16.484 -14.365  0.00  0.00    +0.000 A 
ATOM     13  C   UNL     1      -3.053 -16.614 -14.018  0.00  0.00    +0.000 A 
ATOM     14  C   UNL     1      -1.312 -15.348 -15.083  0.00  0.00    +0.000 A 
ATOM     15  C   UNL     1      -3.987 -15.642 -14.373  0.00  0.00    +0.000 A 
ATOM     16  C   UNL     1      -2.235 -14.368 -15.445  0.00  0.00    +0.000 A 
ATOM     17  C   UNL     1      -3.567 -14.525 -15.086  0.00  0.00    +0.000 A 
BRANCH  17  18
ATOM     18  O   UNL     1      -4.456 -13.556 -15.449  0.00  0.00    +0.000 OA
ATOM     19  H   UNL     1      -3.953 -12.786 -15.770  0.00  0.00    +0.000 HD
ENDBRANCH  17  18
ENDBRANCH   4  12
BRANCH   7  20
ATOM     20  O   UNL     1       2.383 -17.633 -10.871  0.00  0.00    +0.000 OA
ATOM     21  H   UNL     1       2.116 -16.789 -11.304  0.00  0.00    +0.000 HD
ENDBRANCH   7  20
BRANCH  11  22
ATOM     22  O   UNL     1       3.586 -21.984 -12.330  0.00  0.00    +0.000 OA
ATOM     23  H   UNL     1       3.550 -22.479 -13.167  0.00  0.00    +0.000 HD
ENDBRANCH  11  22
TORSDOF 4
ENDMDL
MODEL 2
REMARK VINA RESULT:      -5.1      2.019      2.417
REMARK  Name = Genistein.pdbqt.pdb
REMARK  4 active torsions:
REMARK  status: ('A' for Active; 'I' for Inactive)
REMARK    1  A    between atoms: C_4  and  C_12
REMARK    2  A    between atoms: C_7  and  O_20
REMARK    3  A    between atoms: C_11  and  O_22
REMARK    4  A    between atoms: C_17  and  O_18
REMARK                            x       y       z     vdW  Elec       q    Type
REMARK                         _______ _______ _______ _____ _____    ______ ____
ROOT
ATOM      1  O   UNL     1      -0.103 -20.214 -15.086  0.00  0.00    +0.000 OA
ATOM      2  O   UNL     1      -1.240 -16.472 -13.601  0.00  0.00    +0.000 OA
ATOM      3  C   UNL     1       0.181 -18.372 -13.447  0.00  0.00    +0.000 A 
ATOM      4  C   UNL     1      -1.605 -18.203 -15.246  0.00  0.00    +0.000 A 
ATOM      5  C   UNL     1       0.535 -19.644 -13.986  0.00  0.00    +0.000 A 
ATOM      6  C   UNL     1      -0.936 -17.565 -14.065  0.00  0.00    +0.000 A 
ATOM      7  C   UNL     1       0.880 -17.880 -12.340  0.00  0.00    +0.000 A 
ATOM      8  C   UNL     1      -1.028 -19.344 -15.452  0.00  0.00    +0.000 A 
ATOM      9  C   UNL     1       1.565 -20.388 -13.416  0.00  0.00    +0.000 A 
ATOM     10  C   UNL     1       1.909 -18.631 -11.775  0.00  0.00    +0.000 A 
ATOM     11  C   UNL     1       2.241 -19.871 -12.316  0.00  0.00    +0.000 A 
ENDROOT
BRANCH   4  12
ATOM     12  C   UNL     1      -2.707 -17.652 -16.032  0.00  0.00    +0.000 A 
ATOM     13  C   UNL     1      -2.486 -17.096 -17.295  0.00  0.00    +0.000 A 
ATOM     14  C   UNL     1      -4.015 -17.672 -15.534  0.00  0.00    +0.000 A 
ATOM     15  C   UNL     1      -3.536 -16.572 -18.046  0.00  0.00    +0.000 A 
ATOM     16  C   UNL     1      -5.075 -17.150 -16.274  0.00  0.00    +0.000 A 
ATOM     17  C   UNL     1      -4.825 -16.604 -17.527  0.00  0.00    +0.000 A 
BRANCH  17  18
ATOM     18  O   UNL     1      -5.876 -16.099 -18.236  0.00  0.00    +0.000 OA
ATOM     19  H   UNL     1      -5.856 -16.489 -19.128  0.00  0.00    +0.000 HD
ENDBRANCH  17  18
ENDBRANCH   4  12
BRANCH   7  20
ATOM     20  O   UNL     1       0.610 -16.672 -11.756  0.00  0.00    +0.000 OA
ATOM     21  H   UNL     1      -0.112 -16.794 -11.098  0.00  0.00    +0.000 HD
ENDBRANCH   7  20
BRANCH  11  22
ATOM     22  O   UNL     1       3.248 -20.615 -11.771  0.00  0.00    +0.000 OA
ATOM     23  H   UNL     1       4.029 -20.538 -12.347  0.00  0.00    +0.000 HD
ENDBRANCH  11  22
TORSDOF 4
ENDMDL
MODEL 3
REMARK VINA RESULT:      -5.0     10.055     11.851
REMARK  Name = Genistein.pdbqt.pdb
REMARK  4 active torsions:
REMARK  status: ('A' for Active; 'I' for Inactive)
REMARK    1  A    between atoms: C_4  and  C_12
REMARK    2  A    between atoms: C_7  and  O_20
REMARK    3  A    between atoms: C_11  and  O_22
REMARK    4  A    between atoms: C_17  and  O_18
REMARK                            x       y       z     vdW  Elec       q    Type
REMARK                         _______ _______ _______ _____ _____    ______ ____
ROOT
ATOM      1  O   UNL     1       0.504 -14.500  -3.425  0.00  0.00    +0.000 OA
ATOM      2  O   UNL     1      -3.408 -15.419  -4.592  0.00  0.00    +0.000 OA
ATOM      3  C   UNL     1      -1.266 -14.558  -5.164  0.00  0.00    +0.000 A 
ATOM      4  C   UNL     1      -1.762 -15.412  -2.823  0.00  0.00    +0.000 A 
ATOM      5  C   UNL     1       0.057 -14.260  -4.723  0.00  0.00    +0.000 A 
ATOM      6  C   UNL     1      -2.271 -15.164  -4.213  0.00  0.00    +0.000 A 
ATOM      7  C   UNL     1      -1.624 -14.281  -6.487  0.00  0.00    +0.000 A 
ATOM      8  C   UNL     1      -0.527 -15.023  -2.784  0.00  0.00    +0.000 A 
ATOM      9  C   UNL     1       0.982 -13.700  -5.600  0.00  0.00    +0.000 A 
ATOM     10  C   UNL     1      -0.692 -13.721  -7.359  0.00  0.00    +0.000 A 
ATOM     11  C   UNL     1       0.596 -13.438  -6.910  0.00  0.00    +0.000 A 
ENDROOT
BRANCH   4  12
ATOM     12  C   UNL     1      -2.510 -15.984  -1.706  0.00  0.00    +0.000 A 
ATOM     13  C   UNL     1      -3.478 -15.238  -1.027  0.00  0.00    +0.000 A 
ATOM     14  C   UNL     1      -2.273 -17.299  -1.290  0.00  0.00    +0.000 A 
ATOM     15  C   UNL     1      -4.192 -15.783   0.038  0.00  0.00    +0.000 A 
ATOM     16  C   UNL     1      -2.980 -17.857  -0.225  0.00  0.00    +0.000 A 
ATOM     17  C   UNL     1      -3.935 -17.092   0.430  0.00  0.00    +0.000 A 
BRANCH  17  18
ATOM     18  O   UNL     1      -4.617 -17.655   1.469  0.00  0.00    +0.000 OA
ATOM     19  H   UNL     1      -5.315 -17.036   1.746  0.00  0.00    +0.000 HD
ENDBRANCH  17  18
ENDBRANCH   4  12
BRANCH   7  20
ATOM     20  O   UNL     1      -2.868 -14.533  -6.999  0.00  0.00    +0.000 OA
ATOM     21  H   UNL     1      -2.905 -15.472  -7.291  0.00  0.00    +0.000 HD
ENDBRANCH   7  20
BRANCH  11  22
ATOM     22  O   UNL     1       1.517 -12.889  -7.755  0.00  0.00    +0.000 OA
ATOM     23  H   UNL     1       2.245 -12.528  -7.219  0.00  0.00    +0.000 HD
ENDBRANCH  11  22
TORSDOF 4
ENDMDL
MODEL 4
REMARK VINA RESULT:      -5.0     19.084     22.239
REMARK  Name = Genistein.pdbqt.pdb
REMARK  4 active torsions:
REMARK  status: ('A' for Active; 'I' for Inactive)
REMARK    1  A    between atoms: C_4  and  C_12
REMARK    2  A    between atoms: C_7  and  O_20
REMARK    3  A    between atoms: C_11  and  O_22
REMARK    4  A    between atoms: C_17  and  O_18
REMARK                            x       y       z     vdW  Elec       q    Type
REMARK                         _______ _______ _______ _____ _____    ______ ____
ROOT
ATOM      1  O   UNL     1      -2.783 -38.329  -4.711  0.00  0.00    +0.000 OA
ATOM      2  O   UNL     1      -2.810 -34.483  -3.064  0.00  0.00    +0.000 OA
ATOM      3  C   UNL     1      -2.745 -35.863  -4.999  0.00  0.00    +0.000 A 
ATOM      4  C   UNL     1      -2.851 -36.865  -2.667  0.00  0.00    +0.000 A 
ATOM      5  C   UNL     1      -2.737 -37.192  -5.517  0.00  0.00    +0.000 A 
ATOM      6  C   UNL     1      -2.804 -35.625  -3.509  0.00  0.00    +0.000 A 
ATOM      7  C   UNL     1      -2.697 -34.784  -5.886  0.00  0.00    +0.000 A 
ATOM      8  C   UNL     1      -2.828 -37.882  -3.468  0.00  0.00    +0.000 A 
ATOM      9  C   UNL     1      -2.683 -37.412  -6.891  0.00  0.00    +0.000 A 
ATOM     10  C   UNL     1      -2.643 -35.012  -7.260  0.00  0.00    +0.000 A 
ATOM     11  C   UNL     1      -2.637 -36.318  -7.748  0.00  0.00    +0.000 A 
ENDROOT
BRANCH   4  12
ATOM     12  C   UNL     1      -2.911 -36.932  -1.208  0.00  0.00    +0.000 A 
ATOM     13  C   UNL     1      -1.746 -36.936  -0.437  0.00  0.00    +0.000 A 
ATOM     14  C   UNL     1      -4.144 -36.992  -0.549  0.00  0.00    +0.000 A 
ATOM     15  C   UNL     1      -1.802 -36.999   0.954  0.00  0.00    +0.000 A 
ATOM     16  C   UNL     1      -4.215 -37.056   0.843  0.00  0.00    +0.000 A 
ATOM     17  C   UNL     1      -3.040 -37.059   1.583  0.00  0.00    +0.000 A 
BRANCH  17  18
ATOM     18  O   UNL     1      -3.130 -37.121   2.943  0.00  0.00    +0.000 OA
ATOM     19  H   UNL     1      -2.312 -36.749   3.319  0.00  0.00    +0.000 HD
ENDBRANCH  17  18
ENDBRANCH   4  12
BRANCH   7  20
ATOM     20  O   UNL     1      -2.701 -33.477  -5.482  0.00  0.00    +0.000 OA
ATOM     21  H   UNL     1      -3.099 -32.927  -6.195  0.00  0.00    +0.000 HD
ENDBRANCH   7  20
BRANCH  11  22
ATOM     22  O   UNL     1      -2.584 -36.553  -9.091  0.00  0.00    +0.000 OA
ATOM     23  H   UNL     1      -3.322 -37.144  -9.326  0.00  0.00    +0.000 HD
ENDBRANCH  11  22
TORSDOF 4
ENDMDL
MODEL 5
REMARK VINA RESULT:      -4.9     13.245     14.124
REMARK  Name = Genistein.pdbqt.pdb
REMARK  4 active torsions:
REMARK  status: ('A' for Active; 'I' for Inactive)
REMARK    1  A    between atoms: C_4  and  C_12
REMARK    2  A    between atoms: C_7  and  O_20
REMARK    3  A    between atoms: C_11  and  O_22
REMARK    4  A    between atoms: C_17  and  O_18
REMARK                            x       y       z     vdW  Elec       q    Type
REMARK                         _______ _______ _______ _____ _____    ______ ____
ROOT
ATOM      1  O   UNL     1      -1.107 -16.894  -0.606  0.00  0.00    +0.000 OA
ATOM      2  O   UNL     1      -4.948 -17.882   0.725  0.00  0.00    +0.000 OA
ATOM      3  C   UNL     1      -2.692 -18.540   0.363  0.00  0.00    +0.000 A 
ATOM      4  C   UNL     1      -3.494 -16.201  -0.221  0.00  0.00    +0.000 A 
ATOM      5  C   UNL     1      -1.399 -18.160  -0.102  0.00  0.00    +0.000 A 
ATOM      6  C   UNL     1      -3.837 -17.555   0.326  0.00  0.00    +0.000 A 
ATOM      7  C   UNL     1      -2.889 -19.834   0.853  0.00  0.00    +0.000 A 
ATOM      8  C   UNL     1      -2.240 -16.216  -0.542  0.00  0.00    +0.000 A 
ATOM      9  C   UNL     1      -0.344 -19.068  -0.069  0.00  0.00    +0.000 A 
ATOM     10  C   UNL     1      -1.829 -20.738   0.882  0.00  0.00    +0.000 A 
ATOM     11  C   UNL     1      -0.572 -20.349   0.425  0.00  0.00    +0.000 A 
ENDROOT
BRANCH   4  12
ATOM     12  C   UNL     1      -4.398 -15.063  -0.372  0.00  0.00    +0.000 A 
ATOM     13  C   UNL     1      -4.494 -14.373  -1.584  0.00  0.00    +0.000 A 
ATOM     14  C   UNL     1      -5.194 -14.639   0.699  0.00  0.00    +0.000 A 
ATOM     15  C   UNL     1      -5.356 -13.288  -1.729  0.00  0.00    +0.000 A 
ATOM     16  C   UNL     1      -6.060 -13.554   0.567  0.00  0.00    +0.000 A 
ATOM     17  C   UNL     1      -6.134 -12.888  -0.649  0.00  0.00    +0.000 A 
BRANCH  17  18
ATOM     18  O   UNL     1      -6.988 -11.830  -0.759  0.00  0.00    +0.000 OA
ATOM     19  H   UNL     1      -7.053 -11.399   0.113  0.00  0.00    +0.000 HD
ENDBRANCH  17  18
ENDBRANCH   4  12
BRANCH   7  20
ATOM     20  O   UNL     1      -4.094 -20.288   1.319  0.00  0.00    +0.000 OA
ATOM     21  H   UNL     1      -4.233 -21.206   0.993  0.00  0.00    +0.000 HD
ENDBRANCH   7  20
BRANCH  11  22
ATOM     22  O   UNL     1       0.475 -21.225   0.450  0.00  0.00    +0.000 OA
ATOM     23  H   UNL     1       0.177 -22.065   0.056  0.00  0.00    +0.000 HD
ENDBRANCH  11  22
TORSDOF 4
ENDMDL
MODEL 6
REMARK VINA RESULT:      -4.8      9.236     10.600
REMARK  Name = Genistein.pdbqt.pdb
REMARK  4 active torsions:
REMARK  status: ('A' for Active; 'I' for Inactive)
REMARK    1  A    between atoms: C_4  and  C_12
REMARK    2  A    between atoms: C_7  and  O_20
REMARK    3  A    between atoms: C_11  and  O_22
REMARK    4  A    between atoms: C_17  and  O_18
REMARK                            x       y       z     vdW  Elec       q    Type
REMARK                         _______ _______ _______ _____ _____    ______ ____
ROOT
ATOM      1  O   UNL     1       1.803 -14.954  -3.450  0.00  0.00    +0.000 OA
ATOM      2  O   UNL     1      -1.340 -13.829  -5.972  0.00  0.00    +0.000 OA
ATOM      3  C   UNL     1       0.960 -14.373  -5.711  0.00  0.00    +0.000 A 
ATOM      4  C   UNL     1      -0.630 -14.379  -3.729  0.00  0.00    +0.000 A 
ATOM      5  C   UNL     1       2.001 -14.756  -4.815  0.00  0.00    +0.000 A 
ATOM      6  C   UNL     1      -0.446 -14.159  -5.201  0.00  0.00    +0.000 A 
ATOM      7  C   UNL     1       1.254 -14.198  -7.066  0.00  0.00    +0.000 A 
ATOM      8  C   UNL     1       0.521 -14.714  -3.238  0.00  0.00    +0.000 A 
ATOM      9  C   UNL     1       3.297 -14.952  -5.285  0.00  0.00    +0.000 A 
ATOM     10  C   UNL     1       2.554 -14.396  -7.529  0.00  0.00    +0.000 A 
ATOM     11  C   UNL     1       3.559 -14.771  -6.639  0.00  0.00    +0.000 A 
ENDROOT
BRANCH   4  12
ATOM     12  C   UNL     1      -1.872 -14.243  -2.972  0.00  0.00    +0.000 A 
ATOM     13  C   UNL     1      -3.006 -14.989  -3.304  0.00  0.00    +0.000 A 
ATOM     14  C   UNL     1      -1.952 -13.360  -1.889  0.00  0.00    +0.000 A 
ATOM     15  C   UNL     1      -4.190 -14.860  -2.582  0.00  0.00    +0.000 A 
ATOM     16  C   UNL     1      -3.131 -13.221  -1.158  0.00  0.00    +0.000 A 
ATOM     17  C   UNL     1      -4.242 -13.975  -1.511  0.00  0.00    +0.000 A 
BRANCH  17  18
ATOM     18  O   UNL     1      -5.386 -13.826  -0.784  0.00  0.00    +0.000 OA
ATOM     19  H   UNL     1      -5.409 -14.524  -0.105  0.00  0.00    +0.000 HD
ENDBRANCH  17  18
ENDBRANCH   4  12
BRANCH   7  20
ATOM     20  O   UNL     1       0.321 -13.832  -7.999  0.00  0.00    +0.000 OA
ATOM     21  H   UNL     1      -0.356 -13.267  -7.562  0.00  0.00    +0.000 HD
ENDBRANCH   7  20
BRANCH  11  22
ATOM     22  O   UNL     1       4.835 -14.969  -7.081  0.00  0.00    +0.000 OA
ATOM     23  H   UNL     1       5.281 -15.572  -6.461  0.00  0.00    +0.000 HD
ENDBRANCH  11  22
TORSDOF 4
ENDMDL
MODEL 7
REMARK VINA RESULT:      -4.7     24.737     26.483
REMARK  Name = Genistein.pdbqt.pdb
REMARK  4 active torsions:
REMARK  status: ('A' for Active; 'I' for Inactive)
REMARK    1  A    between atoms: C_4  and  C_12
REMARK    2  A    between atoms: C_7  and  O_20
REMARK    3  A    between atoms: C_11  and  O_22
REMARK    4  A    between atoms: C_17  and  O_18
REMARK                            x       y       z     vdW  Elec       q    Type
REMARK                         _______ _______ _______ _____ _____    ______ ____
ROOT
ATOM      1  O   UNL     1      -5.745 -30.703   9.456  0.00  0.00    +0.000 OA
ATOM      2  O   UNL     1      -4.992 -33.773   6.715  0.00  0.00    +0.000 OA
ATOM      3  C   UNL     1      -4.369 -32.627   8.704  0.00  0.00    +0.000 A 
ATOM      4  C   UNL     1      -6.401 -31.918   7.354  0.00  0.00    +0.000 A 
ATOM      5  C   UNL     1      -4.664 -31.567   9.612  0.00  0.00    +0.000 A 
ATOM      6  C   UNL     1      -5.246 -32.863   7.496  0.00  0.00    +0.000 A 
ATOM      7  C   UNL     1      -3.261 -33.444   8.943  0.00  0.00    +0.000 A 
ATOM      8  C   UNL     1      -6.357 -31.093   8.352  0.00  0.00    +0.000 A 
ATOM      9  C   UNL     1      -3.856 -31.350  10.725  0.00  0.00    +0.000 A 
ATOM     10  C   UNL     1      -2.457 -33.220  10.059  0.00  0.00    +0.000 A 
ATOM     11  C   UNL     1      -2.760 -32.181  10.936  0.00  0.00    +0.000 A 
ENDROOT
BRANCH   4  12
ATOM     12  C   UNL     1      -7.403 -31.913   6.289  0.00  0.00    +0.000 A 
ATOM     13  C   UNL     1      -8.011 -33.097   5.864  0.00  0.00    +0.000 A 
ATOM     14  C   UNL     1      -7.778 -30.714   5.672  0.00  0.00    +0.000 A 
ATOM     15  C   UNL     1      -8.966 -33.093   4.849  0.00  0.00    +0.000 A 
ATOM     16  C   UNL     1      -8.732 -30.695   4.655  0.00  0.00    +0.000 A 
ATOM     17  C   UNL     1      -9.319 -31.888   4.253  0.00  0.00    +0.000 A 
BRANCH  17  18
ATOM     18  O   UNL     1     -10.251 -31.849   3.257  0.00  0.00    +0.000 OA
ATOM     19  H   UNL     1     -10.646 -32.736   3.175  0.00  0.00    +0.000 HD
ENDBRANCH  17  18
ENDBRANCH   4  12
BRANCH   7  20
ATOM     20  O   UNL     1      -2.902 -34.483   8.128  0.00  0.00    +0.000 OA
ATOM     21  H   UNL     1      -1.935 -34.424   7.949  0.00  0.00    +0.000 HD
ENDBRANCH   7  20
BRANCH  11  22
ATOM     22  O   UNL     1      -1.980 -31.952  12.033  0.00  0.00    +0.000 OA
ATOM     23  H   UNL     1      -1.190 -32.518  11.967  0.00  0.00    +0.000 HD
ENDBRANCH  11  22
TORSDOF 4
ENDMDL
MODEL 8
REMARK VINA RESULT:      -4.5     23.662     25.014
REMARK  Name = Genistein.pdbqt.pdb
REMARK  4 active torsions:
REMARK  status: ('A' for Active; 'I' for Inactive)
REMARK    1  A    between atoms: C_4  and  C_12
REMARK    2  A    between atoms: C_7  and  O_20
REMARK    3  A    between atoms: C_11  and  O_22
REMARK    4  A    between atoms: C_17  and  O_18
REMARK                            x       y       z     vdW  Elec       q    Type
REMARK                         _______ _______ _______ _____ _____    ______ ____
ROOT
ATOM      1  O   UNL     1      -7.307 -30.639   6.473  0.00  0.00    +0.000 OA
ATOM      2  O   UNL     1      -7.999 -34.181   4.356  0.00  0.00    +0.000 OA
ATOM      3  C   UNL     1      -6.912 -33.069   6.156  0.00  0.00    +0.000 A 
ATOM      4  C   UNL     1      -8.455 -31.819   4.571  0.00  0.00    +0.000 A 
ATOM      5  C   UNL     1      -6.705 -31.839   6.847  0.00  0.00    +0.000 A 
ATOM      6  C   UNL     1      -7.821 -33.124   4.950  0.00  0.00    +0.000 A 
ATOM      7  C   UNL     1      -6.265 -34.224   6.606  0.00  0.00    +0.000 A 
ATOM      8  C   UNL     1      -8.043 -30.925   5.413  0.00  0.00    +0.000 A 
ATOM      9  C   UNL     1      -5.867 -31.789   7.958  0.00  0.00    +0.000 A 
ATOM     10  C   UNL     1      -5.428 -34.165   7.718  0.00  0.00    +0.000 A 
ATOM     11  C   UNL     1      -5.238 -32.955   8.382  0.00  0.00    +0.000 A 
ENDROOT
BRANCH   4  12
ATOM     12  C   UNL     1      -9.370 -31.580   3.456  0.00  0.00    +0.000 A 
ATOM     13  C   UNL     1     -10.697 -31.205   3.680  0.00  0.00    +0.000 A 
ATOM     14  C   UNL     1      -8.932 -31.721   2.134  0.00  0.00    +0.000 A 
ATOM     15  C   UNL     1     -11.570 -30.976   2.618  0.00  0.00    +0.000 A 
ATOM     16  C   UNL     1      -9.795 -31.496   1.062  0.00  0.00    +0.000 A 
ATOM     17  C   UNL     1     -11.109 -31.124   1.315  0.00  0.00    +0.000 A 
BRANCH  17  18
ATOM     18  O   UNL     1     -11.938 -30.908   0.253  0.00  0.00    +0.000 OA
ATOM     19  H   UNL     1     -12.010 -31.738  -0.251  0.00  0.00    +0.000 HD
ENDBRANCH  17  18
ENDBRANCH   4  12
BRANCH   7  20
ATOM     20  O   UNL     1      -6.404 -35.446   6.007  0.00  0.00    +0.000 OA
ATOM     21  H   UNL     1      -6.389 -36.142   6.703  0.00  0.00    +0.000 HD
ENDBRANCH   7  20
BRANCH  11  22
ATOM     22  O   UNL     1      -4.420 -32.886   9.473  0.00  0.00    +0.000 OA
ATOM     23  H   UNL     1      -3.608 -32.415   9.214  0.00  0.00    +0.000 HD
ENDBRANCH  11  22
TORSDOF 4
ENDMDL
MODEL 9
REMARK VINA RESULT:      -4.5     11.214     13.950
REMARK  Name = Genistein.pdbqt.pdb
REMARK  4 active torsions:
REMARK  status: ('A' for Active; 'I' for Inactive)
REMARK    1  A    between atoms: C_4  and  C_12
REMARK    2  A    between atoms: C_7  and  O_20
REMARK    3  A    between atoms: C_11  and  O_22
REMARK    4  A    between atoms: C_17  and  O_18
REMARK                            x       y       z     vdW  Elec       q    Type
REMARK                         _______ _______ _______ _____ _____    ______ ____
ROOT
ATOM      1  O   UNL     1       1.422 -16.630  -2.436  0.00  0.00    +0.000 OA
ATOM      2  O   UNL     1      -2.346 -17.545  -0.862  0.00  0.00    +0.000 OA
ATOM      3  C   UNL     1      -1.030 -16.247  -2.359  0.00  0.00    +0.000 A 
ATOM      4  C   UNL     1       0.027 -18.001  -0.854  0.00  0.00    +0.000 A 
ATOM      5  C   UNL     1       0.274 -15.968  -2.867  0.00  0.00    +0.000 A 
ATOM      6  C   UNL     1      -1.226 -17.305  -1.299  0.00  0.00    +0.000 A 
ATOM      7  C   UNL     1      -2.124 -15.531  -2.853  0.00  0.00    +0.000 A 
ATOM      8  C   UNL     1       1.013 -17.494  -1.524  0.00  0.00    +0.000 A 
ATOM      9  C   UNL     1       0.454 -14.992  -3.844  0.00  0.00    +0.000 A 
ATOM     10  C   UNL     1      -1.935 -14.556  -3.831  0.00  0.00    +0.000 A 
ATOM     11  C   UNL     1      -0.655 -14.297  -4.316  0.00  0.00    +0.000 A 
ENDROOT
BRANCH   4  12
ATOM     12  C   UNL     1       0.133 -19.057   0.150  0.00  0.00    +0.000 A 
ATOM     13  C   UNL     1      -0.781 -20.114   0.186  0.00  0.00    +0.000 A 
ATOM     14  C   UNL     1       1.159 -19.033   1.102  0.00  0.00    +0.000 A 
ATOM     15  C   UNL     1      -0.679 -21.122   1.143  0.00  0.00    +0.000 A 
ATOM     16  C   UNL     1       1.272 -20.034   2.065  0.00  0.00    +0.000 A 
ATOM     17  C   UNL     1       0.349 -21.072   2.077  0.00  0.00    +0.000 A 
BRANCH  17  18
ATOM     18  O   UNL     1       0.476 -22.043   3.027  0.00  0.00    +0.000 OA
ATOM     19  H   UNL     1       1.289 -22.547   2.841  0.00  0.00    +0.000 HD
ENDBRANCH  17  18
ENDBRANCH   4  12
BRANCH   7  20
ATOM     20  O   UNL     1      -3.409 -15.730  -2.427  0.00  0.00    +0.000 OA
ATOM     21  H   UNL     1      -3.448 -15.568  -1.456  0.00  0.00    +0.000 HD
ENDBRANCH   7  20
BRANCH  11  22
ATOM     22  O   UNL     1      -0.458 -13.345  -5.274  0.00  0.00    +0.000 OA
ATOM     23  H   UNL     1      -0.663 -13.738  -6.140  0.00  0.00    +0.000 HD
ENDBRANCH  11  22
TORSDOF 4
ENDMDL
