REMARK  Name = HydrogenPeroxide.pdbqt.pdb
REMARK  1 active torsions:
REMARK  status: ('A' for Active; 'I' for Inactive)
REMARK    1  A    between atoms: O_1  and  O_3
REMARK                            x       y       z     vdW  Elec       q    Type
REMARK                         _______ _______ _______ _____ _____    ______ ____
ROOT
ATOM      1  O   UNL     1       0.725  -0.120   0.057  0.00  0.00    +0.000 OA
ATOM      2  H   UNL     1       0.900  -0.584  -0.784  0.00  0.00    +0.000 HD
ENDROOT
BRANCH   1   3
ATOM      3  O   UNL     1      -0.725  -0.126  -0.042  0.00  0.00    +0.000 OA
ATOM      4  H   UNL     1      -0.900  -0.489   0.847  0.00  0.00    +0.000 HD
ENDBRANCH   1   3
TORSDOF 1
