MODEL 1
REMARK VINA RESULT:      -2.6      0.000      0.000
REMARK  Name = HydrogenPeroxide.pdbqt.pdb
REMARK  1 active torsions:
REMARK  status: ('A' for Active; 'I' for Inactive)
REMARK    1  A    between atoms: O_1  and  O_3
REMARK                            x       y       z     vdW  Elec       q    Type
REMARK                         _______ _______ _______ _____ _____    ______ ____
ROOT
ATOM      1  O   UNL     1      -2.764 -25.193  -2.678  0.00  0.00    +0.000 OA
ATOM      2  H   UNL     1      -2.684 -25.579  -1.785  0.00  0.00    +0.000 HD
ENDROOT
BRANCH   1   3
ATOM      3  O   UNL     1      -2.232 -23.882  -2.346  0.00  0.00    +0.000 OA
ATOM      4  H   UNL     1      -3.001 -23.572  -1.830  0.00  0.00    +0.000 HD
ENDBRANCH   1   3
TORSDOF 1
ENDMDL
MODEL 2
REMARK VINA RESULT:      -2.3      6.603      6.830
REMARK  Name = HydrogenPeroxide.pdbqt.pdb
REMARK  1 active torsions:
REMARK  status: ('A' for Active; 'I' for Inactive)
REMARK    1  A    between atoms: O_1  and  O_3
REMARK                            x       y       z     vdW  Elec       q    Type
REMARK                         _______ _______ _______ _____ _____    ______ ____
ROOT
ATOM      1  O   UNL     1       1.179 -28.989   1.345  0.00  0.00    +0.000 OA
ATOM      2  H   UNL     1       1.470 -29.467   2.146  0.00  0.00    +0.000 HD
ENDROOT
BRANCH   1   3
ATOM      3  O   UNL     1      -0.248 -29.187   1.536  0.00  0.00    +0.000 OA
ATOM      4  H   UNL     1      -0.542 -28.639   0.784  0.00  0.00    +0.000 HD
ENDBRANCH   1   3
TORSDOF 1
ENDMDL
MODEL 3
REMARK VINA RESULT:      -2.1      8.322      8.522
REMARK  Name = HydrogenPeroxide.pdbqt.pdb
REMARK  1 active torsions:
REMARK  status: ('A' for Active; 'I' for Inactive)
REMARK    1  A    between atoms: O_1  and  O_3
REMARK                            x       y       z     vdW  Elec       q    Type
REMARK                         _______ _______ _______ _____ _____    ______ ____
ROOT
ATOM      1  O   UNL     1      -3.623 -30.993  -7.589  0.00  0.00    +0.000 OA
ATOM      2  H   UNL     1      -4.496 -30.921  -8.020  0.00  0.00    +0.000 HD
ENDROOT
BRANCH   1   3
ATOM      3  O   UNL     1      -4.003 -31.980  -6.592  0.00  0.00    +0.000 OA
ATOM      4  H   UNL     1      -4.469 -32.585  -7.200  0.00  0.00    +0.000 HD
ENDBRANCH   1   3
TORSDOF 1
ENDMDL
MODEL 4
REMARK VINA RESULT:      -2.1     12.204     12.611
REMARK  Name = HydrogenPeroxide.pdbqt.pdb
REMARK  1 active torsions:
REMARK  status: ('A' for Active; 'I' for Inactive)
REMARK    1  A    between atoms: O_1  and  O_3
REMARK                            x       y       z     vdW  Elec       q    Type
REMARK                         _______ _______ _______ _____ _____    ______ ____
ROOT
ATOM      1  O   UNL     1       2.327 -35.011   3.385  0.00  0.00    +0.000 OA
ATOM      2  H   UNL     1       1.725 -35.437   4.025  0.00  0.00    +0.000 HD
ENDROOT
BRANCH   1   3
ATOM      3  O   UNL     1       1.420 -35.041   2.250  0.00  0.00    +0.000 OA
ATOM      4  H   UNL     1       0.770 -34.406   2.604  0.00  0.00    +0.000 HD
ENDBRANCH   1   3
TORSDOF 1
ENDMDL
MODEL 5
REMARK VINA RESULT:      -2.1     12.158     12.274
REMARK  Name = HydrogenPeroxide.pdbqt.pdb
REMARK  1 active torsions:
REMARK  status: ('A' for Active; 'I' for Inactive)
REMARK    1  A    between atoms: O_1  and  O_3
REMARK                            x       y       z     vdW  Elec       q    Type
REMARK                         _______ _______ _______ _____ _____    ______ ____
ROOT
ATOM      1  O   UNL     1      -1.507 -27.487 -14.465  0.00  0.00    +0.000 OA
ATOM      2  H   UNL     1      -1.567 -28.385 -14.844  0.00  0.00    +0.000 HD
ENDROOT
BRANCH   1   3
ATOM      3  O   UNL     1      -2.936 -27.260 -14.330  0.00  0.00    +0.000 OA
ATOM      4  H   UNL     1      -3.069 -27.822 -13.544  0.00  0.00    +0.000 HD
ENDBRANCH   1   3
TORSDOF 1
ENDMDL
MODEL 6
REMARK VINA RESULT:      -1.9      1.353      1.833
REMARK  Name = HydrogenPeroxide.pdbqt.pdb
REMARK  1 active torsions:
REMARK  status: ('A' for Active; 'I' for Inactive)
REMARK    1  A    between atoms: O_1  and  O_3
REMARK                            x       y       z     vdW  Elec       q    Type
REMARK                         _______ _______ _______ _____ _____    ______ ____
ROOT
ATOM      1  O   UNL     1      -2.200 -23.613  -2.031  0.00  0.00    +0.000 OA
ATOM      2  H   UNL     1      -1.665 -24.353  -1.686  0.00  0.00    +0.000 HD
ENDROOT
BRANCH   1   3
ATOM      3  O   UNL     1      -1.981 -22.708  -0.915  0.00  0.00    +0.000 OA
ATOM      4  H   UNL     1      -1.380 -22.095  -1.380  0.00  0.00    +0.000 HD
ENDBRANCH   1   3
TORSDOF 1
ENDMDL
MODEL 7
REMARK VINA RESULT:      -1.9      9.757      9.934
REMARK  Name = HydrogenPeroxide.pdbqt.pdb
REMARK  1 active torsions:
REMARK  status: ('A' for Active; 'I' for Inactive)
REMARK    1  A    between atoms: O_1  and  O_3
REMARK                            x       y       z     vdW  Elec       q    Type
REMARK                         _______ _______ _______ _____ _____    ______ ____
ROOT
ATOM      1  O   UNL     1      -2.837 -15.485  -6.063  0.00  0.00    +0.000 OA
ATOM      2  H   UNL     1      -3.061 -14.535  -6.060  0.00  0.00    +0.000 HD
ENDROOT
BRANCH   1   3
ATOM      3  O   UNL     1      -1.501 -15.345  -6.618  0.00  0.00    +0.000 OA
ATOM      4  H   UNL     1      -1.216 -16.266  -6.465  0.00  0.00    +0.000 HD
ENDBRANCH   1   3
TORSDOF 1
ENDMDL
MODEL 8
REMARK VINA RESULT:      -1.9     16.431     16.685
REMARK  Name = HydrogenPeroxide.pdbqt.pdb
REMARK  1 active torsions:
REMARK  status: ('A' for Active; 'I' for Inactive)
REMARK    1  A    between atoms: O_1  and  O_3
REMARK                            x       y       z     vdW  Elec       q    Type
REMARK                         _______ _______ _______ _____ _____    ______ ____
ROOT
ATOM      1  O   UNL     1      -9.617 -12.653 -12.731  0.00  0.00    +0.000 OA
ATOM      2  H   UNL     1      -9.442 -11.700 -12.853  0.00  0.00    +0.000 HD
ENDROOT
BRANCH   1   3
ATOM      3  O   UNL     1      -8.996 -12.777 -11.424  0.00  0.00    +0.000 OA
ATOM      4  H   UNL     1      -9.691 -13.328 -11.017  0.00  0.00    +0.000 HD
ENDBRANCH   1   3
TORSDOF 1
ENDMDL
MODEL 9
REMARK VINA RESULT:      -1.8     16.350     16.644
REMARK  Name = HydrogenPeroxide.pdbqt.pdb
REMARK  1 active torsions:
REMARK  status: ('A' for Active; 'I' for Inactive)
REMARK    1  A    between atoms: O_1  and  O_3
REMARK                            x       y       z     vdW  Elec       q    Type
REMARK                         _______ _______ _______ _____ _____    ______ ____
ROOT
ATOM      1  O   UNL     1     -10.558 -28.722 -16.751  0.00  0.00    +0.000 OA
ATOM      2  H   UNL     1      -9.587 -28.754 -16.846  0.00  0.00    +0.000 HD
ENDROOT
BRANCH   1   3
ATOM      3  O   UNL     1     -10.659 -29.704 -15.684  0.00  0.00    +0.000 OA
ATOM      4  H   UNL     1     -11.322 -29.227 -15.150  0.00  0.00    +0.000 HD
ENDBRANCH   1   3
TORSDOF 1
ENDMDL
