MODEL 1
REMARK VINA RESULT:      -4.9      0.000      0.000
REMARK  Name = Hyoscyamine.pdbqt.pdb
REMARK  6 active torsions:
REMARK  status: ('A' for Active; 'I' for Inactive)
REMARK    1  A    between atoms: C_2  and  O_3
REMARK    2  A    between atoms: C_2  and  C_13
REMARK    3  A    between atoms: O_3  and  C_4
REMARK    4  A    between atoms: C_13  and  C_14
REMARK    5  A    between atoms: C_13  and  C_20
REMARK    6  A    between atoms: C_20  and  O_21
REMARK                            x       y       z     vdW  Elec       q    Type
REMARK                         _______ _______ _______ _____ _____    ______ ____
ROOT
ATOM      1  O   UNL     1       3.855 -32.451  -0.492  0.00  0.00    +0.000 OA
ATOM      2  C   UNL     1       3.394 -31.775   0.420  0.00  0.00    +0.000 C 
ENDROOT
BRANCH   2   3
ATOM      3  O   UNL     1       2.765 -32.233   1.541  0.00  0.00    +0.000 OA
BRANCH   3   4
ATOM      4  C   UNL     1       3.548 -33.120   2.281  0.00  0.00    +0.000 C 
ATOM      5  C   UNL     1       3.021 -34.404   2.707  0.00  0.00    +0.000 C 
ATOM      6  C   UNL     1       3.227 -35.052   4.009  0.00  0.00    +0.000 C 
ATOM      7  N   UNL     1       3.118 -33.903   5.020  0.00  0.00    +0.000 NA
ATOM      8  C   UNL     1       4.578 -35.555   4.187  0.00  0.00    +0.000 C 
ATOM      9  C   UNL     1       4.479 -33.258   4.718  0.00  0.00    +0.000 C 
ATOM     10  C   UNL     1       3.056 -34.406   6.401  0.00  0.00    +0.000 C 
ATOM     11  C   UNL     1       5.419 -34.369   4.663  0.00  0.00    +0.000 C 
ATOM     12  C   UNL     1       4.285 -32.601   3.416  0.00  0.00    +0.000 C 
ENDBRANCH   3   4
ENDBRANCH   2   3
BRANCH   2  13
ATOM     13  C   UNL     1       3.422 -30.283   0.415  0.00  0.00    +0.000 C 
BRANCH  13  14
ATOM     14  C   UNL     1       4.526 -29.485  -0.151  0.00  0.00    +0.000 A 
ATOM     15  C   UNL     1       4.324 -28.721  -1.306  0.00  0.00    +0.000 A 
ATOM     16  C   UNL     1       5.368 -27.991  -1.873  0.00  0.00    +0.000 A 
ATOM     17  C   UNL     1       6.633 -28.024  -1.296  0.00  0.00    +0.000 A 
ATOM     18  C   UNL     1       6.853 -28.787  -0.154  0.00  0.00    +0.000 A 
ATOM     19  C   UNL     1       5.805 -29.515   0.409  0.00  0.00    +0.000 A 
ENDBRANCH  13  14
BRANCH  13  20
ATOM     20  C   UNL     1       2.270 -29.613   0.937  0.00  0.00    +0.000 C 
BRANCH  20  21
ATOM     21  O   UNL     1       1.200 -28.991   1.421  0.00  0.00    +0.000 OA
ATOM     22  H   UNL     1       0.961 -28.234   0.858  0.00  0.00    +0.000 HD
ENDBRANCH  20  21
ENDBRANCH  13  20
ENDBRANCH   2  13
TORSDOF 6
ENDMDL
MODEL 2
REMARK VINA RESULT:      -4.8      1.542      2.358
REMARK  Name = Hyoscyamine.pdbqt.pdb
REMARK  6 active torsions:
REMARK  status: ('A' for Active; 'I' for Inactive)
REMARK    1  A    between atoms: C_2  and  O_3
REMARK    2  A    between atoms: C_2  and  C_13
REMARK    3  A    between atoms: O_3  and  C_4
REMARK    4  A    between atoms: C_13  and  C_14
REMARK    5  A    between atoms: C_13  and  C_20
REMARK    6  A    between atoms: C_20  and  O_21
REMARK                            x       y       z     vdW  Elec       q    Type
REMARK                         _______ _______ _______ _____ _____    ______ ____
ROOT
ATOM      1  O   UNL     1       5.424 -31.654  -0.056  0.00  0.00    +0.000 OA
ATOM      2  C   UNL     1       4.237 -31.377  -0.173  0.00  0.00    +0.000 C 
ENDROOT
BRANCH   2   3
ATOM      3  O   UNL     1       3.180 -32.230  -0.033  0.00  0.00    +0.000 OA
BRANCH   3   4
ATOM      4  C   UNL     1       3.138 -32.845   1.218  0.00  0.00    +0.000 C 
ATOM      5  C   UNL     1       3.614 -32.154   2.404  0.00  0.00    +0.000 C 
ATOM      6  C   UNL     1       4.398 -32.732   3.504  0.00  0.00    +0.000 C 
ATOM      7  N   UNL     1       5.406 -33.651   2.802  0.00  0.00    +0.000 NA
ATOM      8  C   UNL     1       3.625 -33.629   4.344  0.00  0.00    +0.000 C 
ATOM      9  C   UNL     1       4.417 -34.769   2.437  0.00  0.00    +0.000 C 
ATOM     10  C   UNL     1       6.438 -34.130   3.734  0.00  0.00    +0.000 C 
ATOM     11  C   UNL     1       3.634 -34.990   3.645  0.00  0.00    +0.000 C 
ATOM     12  C   UNL     1       3.628 -34.204   1.331  0.00  0.00    +0.000 C 
ENDBRANCH   3   4
ENDBRANCH   2   3
BRANCH   2  13
ATOM     13  C   UNL     1       3.755 -30.012  -0.540  0.00  0.00    +0.000 C 
BRANCH  13  14
ATOM     14  C   UNL     1       4.280 -29.237  -1.680  0.00  0.00    +0.000 A 
ATOM     15  C   UNL     1       4.595 -29.877  -2.884  0.00  0.00    +0.000 A 
ATOM     16  C   UNL     1       5.126 -29.163  -3.957  0.00  0.00    +0.000 A 
ATOM     17  C   UNL     1       5.359 -27.797  -3.835  0.00  0.00    +0.000 A 
ATOM     18  C   UNL     1       5.061 -27.147  -2.642  0.00  0.00    +0.000 A 
ATOM     19  C   UNL     1       4.530 -27.867  -1.572  0.00  0.00    +0.000 A 
ENDBRANCH  13  14
BRANCH  13  20
ATOM     20  C   UNL     1       2.678 -29.477   0.234  0.00  0.00    +0.000 C 
BRANCH  20  21
ATOM     21  O   UNL     1       1.677 -28.979   0.953  0.00  0.00    +0.000 OA
ATOM     22  H   UNL     1       1.936 -28.133   1.358  0.00  0.00    +0.000 HD
ENDBRANCH  20  21
ENDBRANCH  13  20
ENDBRANCH   2  13
TORSDOF 6
ENDMDL
MODEL 3
REMARK VINA RESULT:      -4.6     10.983     12.781
REMARK  Name = Hyoscyamine.pdbqt.pdb
REMARK  6 active torsions:
REMARK  status: ('A' for Active; 'I' for Inactive)
REMARK    1  A    between atoms: C_2  and  O_3
REMARK    2  A    between atoms: C_2  and  C_13
REMARK    3  A    between atoms: O_3  and  C_4
REMARK    4  A    between atoms: C_13  and  C_14
REMARK    5  A    between atoms: C_13  and  C_20
REMARK    6  A    between atoms: C_20  and  O_21
REMARK                            x       y       z     vdW  Elec       q    Type
REMARK                         _______ _______ _______ _____ _____    ______ ____
ROOT
ATOM      1  O   UNL     1       1.987 -34.474 -10.987  0.00  0.00    +0.000 OA
ATOM      2  C   UNL     1       1.370 -33.416 -10.995  0.00  0.00    +0.000 C 
ENDROOT
BRANCH   2   3
ATOM      3  O   UNL     1       0.037 -33.247 -11.229  0.00  0.00    +0.000 OA
BRANCH   3   4
ATOM      4  C   UNL     1      -0.740 -33.387 -10.078  0.00  0.00    +0.000 C 
ATOM      5  C   UNL     1      -1.389 -34.648  -9.766  0.00  0.00    +0.000 C 
ATOM      6  C   UNL     1      -2.742 -34.831  -9.224  0.00  0.00    +0.000 C 
ATOM      7  N   UNL     1      -3.590 -33.799  -9.980  0.00  0.00    +0.000 NA
ATOM      8  C   UNL     1      -2.857 -34.434  -7.832  0.00  0.00    +0.000 C 
ATOM      9  C   UNL     1      -3.070 -32.555  -9.243  0.00  0.00    +0.000 C 
ATOM     10  C   UNL     1      -5.026 -34.005  -9.741  0.00  0.00    +0.000 C 
ATOM     11  C   UNL     1      -3.080 -32.921  -7.833  0.00  0.00    +0.000 C 
ATOM     12  C   UNL     1      -1.715 -32.358  -9.780  0.00  0.00    +0.000 C 
ENDBRANCH   3   4
ENDBRANCH   2   3
BRANCH   2  13
ATOM     13  C   UNL     1       2.029 -32.093 -10.777  0.00  0.00    +0.000 C 
BRANCH  13  14
ATOM     14  C   UNL     1       3.085 -31.858  -9.774  0.00  0.00    +0.000 A 
ATOM     15  C   UNL     1       2.891 -30.925  -8.750  0.00  0.00    +0.000 A 
ATOM     16  C   UNL     1       3.894 -30.667  -7.817  0.00  0.00    +0.000 A 
ATOM     17  C   UNL     1       5.111 -31.334  -7.903  0.00  0.00    +0.000 A 
ATOM     18  C   UNL     1       5.324 -32.257  -8.921  0.00  0.00    +0.000 A 
ATOM     19  C   UNL     1       4.317 -32.511  -9.851  0.00  0.00    +0.000 A 
ENDBRANCH  13  14
BRANCH  13  20
ATOM     20  C   UNL     1       1.640 -31.026 -11.648  0.00  0.00    +0.000 C 
BRANCH  20  21
ATOM     21  O   UNL     1       1.280 -30.036 -12.457  0.00  0.00    +0.000 OA
ATOM     22  H   UNL     1       0.677 -30.362 -13.148  0.00  0.00    +0.000 HD
ENDBRANCH  20  21
ENDBRANCH  13  20
ENDBRANCH   2  13
TORSDOF 6
ENDMDL
MODEL 4
REMARK VINA RESULT:      -4.5      6.513      9.457
REMARK  Name = Hyoscyamine.pdbqt.pdb
REMARK  6 active torsions:
REMARK  status: ('A' for Active; 'I' for Inactive)
REMARK    1  A    between atoms: C_2  and  O_3
REMARK    2  A    between atoms: C_2  and  C_13
REMARK    3  A    between atoms: O_3  and  C_4
REMARK    4  A    between atoms: C_13  and  C_14
REMARK    5  A    between atoms: C_13  and  C_20
REMARK    6  A    between atoms: C_20  and  O_21
REMARK                            x       y       z     vdW  Elec       q    Type
REMARK                         _______ _______ _______ _____ _____    ______ ____
ROOT
ATOM      1  O   UNL     1       7.099 -29.678  -5.731  0.00  0.00    +0.000 OA
ATOM      2  C   UNL     1       6.237 -30.163  -5.008  0.00  0.00    +0.000 C 
ENDROOT
BRANCH   2   3
ATOM      3  O   UNL     1       5.706 -31.417  -5.096  0.00  0.00    +0.000 OA
BRANCH   3   4
ATOM      4  C   UNL     1       5.065 -31.653  -6.312  0.00  0.00    +0.000 C 
ATOM      5  C   UNL     1       5.828 -31.915  -7.519  0.00  0.00    +0.000 C 
ATOM      6  C   UNL     1       5.547 -31.403  -8.867  0.00  0.00    +0.000 C 
ATOM      7  N   UNL     1       5.123 -29.947  -8.633  0.00  0.00    +0.000 NA
ATOM      8  C   UNL     1       4.382 -32.019  -9.478  0.00  0.00    +0.000 C 
ATOM      9  C   UNL     1       3.729 -30.248  -8.062  0.00  0.00    +0.000 C 
ATOM     10  C   UNL     1       5.037 -29.203  -9.898  0.00  0.00    +0.000 C 
ATOM     11  C   UNL     1       3.166 -31.254  -8.952  0.00  0.00    +0.000 C 
ATOM     12  C   UNL     1       3.996 -30.758  -6.709  0.00  0.00    +0.000 C 
ENDBRANCH   3   4
ENDBRANCH   2   3
BRANCH   2  13
ATOM     13  C   UNL     1       5.586 -29.402  -3.901  0.00  0.00    +0.000 C 
BRANCH  13  14
ATOM     14  C   UNL     1       5.523 -27.929  -3.845  0.00  0.00    +0.000 A 
ATOM     15  C   UNL     1       4.565 -27.293  -3.048  0.00  0.00    +0.000 A 
ATOM     16  C   UNL     1       4.470 -25.903  -3.014  0.00  0.00    +0.000 A 
ATOM     17  C   UNL     1       5.330 -25.129  -3.786  0.00  0.00    +0.000 A 
ATOM     18  C   UNL     1       6.281 -25.745  -4.591  0.00  0.00    +0.000 A 
ATOM     19  C   UNL     1       6.371 -27.136  -4.622  0.00  0.00    +0.000 A 
ENDBRANCH  13  14
BRANCH  13  20
ATOM     20  C   UNL     1       4.938 -30.170  -2.882  0.00  0.00    +0.000 C 
BRANCH  20  21
ATOM     21  O   UNL     1       4.335 -30.883  -1.937  0.00  0.00    +0.000 OA
ATOM     22  H   UNL     1       3.889 -31.656  -2.325  0.00  0.00    +0.000 HD
ENDBRANCH  20  21
ENDBRANCH  13  20
ENDBRANCH   2  13
TORSDOF 6
ENDMDL
MODEL 5
REMARK VINA RESULT:      -4.5      3.178      4.543
REMARK  Name = Hyoscyamine.pdbqt.pdb
REMARK  6 active torsions:
REMARK  status: ('A' for Active; 'I' for Inactive)
REMARK    1  A    between atoms: C_2  and  O_3
REMARK    2  A    between atoms: C_2  and  C_13
REMARK    3  A    between atoms: O_3  and  C_4
REMARK    4  A    between atoms: C_13  and  C_14
REMARK    5  A    between atoms: C_13  and  C_20
REMARK    6  A    between atoms: C_20  and  O_21
REMARK                            x       y       z     vdW  Elec       q    Type
REMARK                         _______ _______ _______ _____ _____    ______ ____
ROOT
ATOM      1  O   UNL     1       5.887 -33.813   0.644  0.00  0.00    +0.000 OA
ATOM      2  C   UNL     1       4.809 -34.339   0.892  0.00  0.00    +0.000 C 
ENDROOT
BRANCH   2   3
ATOM      3  O   UNL     1       4.546 -35.677   0.949  0.00  0.00    +0.000 OA
BRANCH   3   4
ATOM      4  C   UNL     1       5.595 -36.415   1.497  0.00  0.00    +0.000 C 
ATOM      5  C   UNL     1       6.133 -37.572   0.803  0.00  0.00    +0.000 C 
ATOM      6  C   UNL     1       6.540 -38.849   1.406  0.00  0.00    +0.000 C 
ATOM      7  N   UNL     1       5.457 -39.128   2.457  0.00  0.00    +0.000 NA
ATOM      8  C   UNL     1       7.766 -38.749   2.178  0.00  0.00    +0.000 C 
ATOM      9  C   UNL     1       5.917 -38.081   3.483  0.00  0.00    +0.000 C 
ATOM     10  C   UNL     1       5.568 -40.492   2.995  0.00  0.00    +0.000 C 
ATOM     11  C   UNL     1       7.362 -38.242   3.564  0.00  0.00    +0.000 C 
ATOM     12  C   UNL     1       5.511 -36.796   2.892  0.00  0.00    +0.000 C 
ENDBRANCH   3   4
ENDBRANCH   2   3
BRANCH   2  13
ATOM     13  C   UNL     1       3.563 -33.555   1.139  0.00  0.00    +0.000 C 
BRANCH  13  14
ATOM     14  C   UNL     1       3.388 -32.146   0.738  0.00  0.00    +0.000 A 
ATOM     15  C   UNL     1       3.714 -31.735  -0.559  0.00  0.00    +0.000 A 
ATOM     16  C   UNL     1       3.588 -30.401  -0.941  0.00  0.00    +0.000 A 
ATOM     17  C   UNL     1       3.142 -29.455  -0.024  0.00  0.00    +0.000 A 
ATOM     18  C   UNL     1       2.823 -29.844   1.272  0.00  0.00    +0.000 A 
ATOM     19  C   UNL     1       2.951 -31.181   1.649  0.00  0.00    +0.000 A 
ENDBRANCH  13  14
BRANCH  13  20
ATOM     20  C   UNL     1       2.469 -34.252   1.742  0.00  0.00    +0.000 C 
BRANCH  20  21
ATOM     21  O   UNL     1       1.453 -34.901   2.301  0.00  0.00    +0.000 OA
ATOM     22  H   UNL     1       1.302 -34.581   3.208  0.00  0.00    +0.000 HD
ENDBRANCH  20  21
ENDBRANCH  13  20
ENDBRANCH   2  13
TORSDOF 6
ENDMDL
MODEL 6
REMARK VINA RESULT:      -4.4      9.891     12.507
REMARK  Name = Hyoscyamine.pdbqt.pdb
REMARK  6 active torsions:
REMARK  status: ('A' for Active; 'I' for Inactive)
REMARK    1  A    between atoms: C_2  and  O_3
REMARK    2  A    between atoms: C_2  and  C_13
REMARK    3  A    between atoms: O_3  and  C_4
REMARK    4  A    between atoms: C_13  and  C_14
REMARK    5  A    between atoms: C_13  and  C_20
REMARK    6  A    between atoms: C_20  and  O_21
REMARK                            x       y       z     vdW  Elec       q    Type
REMARK                         _______ _______ _______ _____ _____    ______ ____
ROOT
ATOM      1  O   UNL     1       4.551 -31.277 -11.686  0.00  0.00    +0.000 OA
ATOM      2  C   UNL     1       3.461 -30.876 -11.297  0.00  0.00    +0.000 C 
ENDROOT
BRANCH   2   3
ATOM      3  O   UNL     1       3.204 -29.705 -10.644  0.00  0.00    +0.000 OA
BRANCH   3   4
ATOM      4  C   UNL     1       3.749 -29.667  -9.360  0.00  0.00    +0.000 C 
ATOM      5  C   UNL     1       5.183 -29.549  -9.162  0.00  0.00    +0.000 C 
ATOM      6  C   UNL     1       5.994 -30.255  -8.162  0.00  0.00    +0.000 C 
ATOM      7  N   UNL     1       5.422 -31.679  -8.154  0.00  0.00    +0.000 NA
ATOM      8  C   UNL     1       5.773 -29.777  -6.808  0.00  0.00    +0.000 C 
ATOM      9  C   UNL     1       4.122 -31.354  -7.401  0.00  0.00    +0.000 C 
ATOM     10  C   UNL     1       6.274 -32.597  -7.383  0.00  0.00    +0.000 C 
ATOM     11  C   UNL     1       4.532 -30.505  -6.291  0.00  0.00    +0.000 C 
ATOM     12  C   UNL     1       3.298 -30.649  -8.395  0.00  0.00    +0.000 C 
ENDBRANCH   3   4
ENDBRANCH   2   3
BRANCH   2  13
ATOM     13  C   UNL     1       2.205 -31.667 -11.454  0.00  0.00    +0.000 C 
BRANCH  13  14
ATOM     14  C   UNL     1       2.072 -33.082 -11.061  0.00  0.00    +0.000 A 
ATOM     15  C   UNL     1       0.823 -33.602 -10.704  0.00  0.00    +0.000 A 
ATOM     16  C   UNL     1       0.689 -34.928 -10.295  0.00  0.00    +0.000 A 
ATOM     17  C   UNL     1       1.809 -35.751 -10.229  0.00  0.00    +0.000 A 
ATOM     18  C   UNL     1       3.059 -35.248 -10.571  0.00  0.00    +0.000 A 
ATOM     19  C   UNL     1       3.187 -33.921 -10.979  0.00  0.00    +0.000 A 
ENDBRANCH  13  14
BRANCH  13  20
ATOM     20  C   UNL     1       1.061 -30.970 -11.957  0.00  0.00    +0.000 C 
BRANCH  20  21
ATOM     21  O   UNL     1      -0.002 -30.323 -12.424  0.00  0.00    +0.000 OA
ATOM     22  H   UNL     1       0.169 -29.992 -13.324  0.00  0.00    +0.000 HD
ENDBRANCH  20  21
ENDBRANCH  13  20
ENDBRANCH   2  13
TORSDOF 6
ENDMDL
MODEL 7
REMARK VINA RESULT:      -4.3     12.260     15.335
REMARK  Name = Hyoscyamine.pdbqt.pdb
REMARK  6 active torsions:
REMARK  status: ('A' for Active; 'I' for Inactive)
REMARK    1  A    between atoms: C_2  and  O_3
REMARK    2  A    between atoms: C_2  and  C_13
REMARK    3  A    between atoms: O_3  and  C_4
REMARK    4  A    between atoms: C_13  and  C_14
REMARK    5  A    between atoms: C_13  and  C_20
REMARK    6  A    between atoms: C_20  and  O_21
REMARK                            x       y       z     vdW  Elec       q    Type
REMARK                         _______ _______ _______ _____ _____    ______ ____
ROOT
ATOM      1  O   UNL     1       4.604 -29.172 -13.862  0.00  0.00    +0.000 OA
ATOM      2  C   UNL     1       3.713 -28.494 -13.364  0.00  0.00    +0.000 C 
ENDROOT
BRANCH   2   3
ATOM      3  O   UNL     1       3.567 -27.140 -13.453  0.00  0.00    +0.000 OA
BRANCH   3   4
ATOM      4  C   UNL     1       4.697 -26.442 -13.027  0.00  0.00    +0.000 C 
ATOM      5  C   UNL     1       5.168 -26.550 -11.657  0.00  0.00    +0.000 C 
ATOM      6  C   UNL     1       5.681 -25.463 -10.814  0.00  0.00    +0.000 C 
ATOM      7  N   UNL     1       4.752 -24.280 -11.122  0.00  0.00    +0.000 NA
ATOM      8  C   UNL     1       6.995 -24.997 -11.223  0.00  0.00    +0.000 C 
ATOM      9  C   UNL     1       5.317 -23.957 -12.514  0.00  0.00    +0.000 C 
ATOM     10  C   UNL     1       4.966 -23.169 -10.183  0.00  0.00    +0.000 C 
ATOM     11  C   UNL     1       6.763 -23.991 -12.351  0.00  0.00    +0.000 C 
ATOM     12  C   UNL     1       4.805 -25.038 -13.370  0.00  0.00    +0.000 C 
ENDBRANCH   3   4
ENDBRANCH   2   3
BRANCH   2  13
ATOM     13  C   UNL     1       2.631 -29.077 -12.516  0.00  0.00    +0.000 C 
BRANCH  13  14
ATOM     14  C   UNL     1       2.879 -29.821 -11.267  0.00  0.00    +0.000 A 
ATOM     15  C   UNL     1       2.550 -31.178 -11.177  0.00  0.00    +0.000 A 
ATOM     16  C   UNL     1       2.745 -31.886  -9.991  0.00  0.00    +0.000 A 
ATOM     17  C   UNL     1       3.265 -31.239  -8.875  0.00  0.00    +0.000 A 
ATOM     18  C   UNL     1       3.587 -29.888  -8.944  0.00  0.00    +0.000 A 
ATOM     19  C   UNL     1       3.390 -29.186 -10.133  0.00  0.00    +0.000 A 
ENDBRANCH  13  14
BRANCH  13  20
ATOM     20  C   UNL     1       1.283 -28.828 -12.927  0.00  0.00    +0.000 C 
BRANCH  20  21
ATOM     21  O   UNL     1       0.031 -28.597 -13.308  0.00  0.00    +0.000 OA
ATOM     22  H   UNL     1      -0.012 -28.457 -14.271  0.00  0.00    +0.000 HD
ENDBRANCH  20  21
ENDBRANCH  13  20
ENDBRANCH   2  13
TORSDOF 6
ENDMDL
MODEL 8
REMARK VINA RESULT:      -4.0     12.713     14.901
REMARK  Name = Hyoscyamine.pdbqt.pdb
REMARK  6 active torsions:
REMARK  status: ('A' for Active; 'I' for Inactive)
REMARK    1  A    between atoms: C_2  and  O_3
REMARK    2  A    between atoms: C_2  and  C_13
REMARK    3  A    between atoms: O_3  and  C_4
REMARK    4  A    between atoms: C_13  and  C_14
REMARK    5  A    between atoms: C_13  and  C_20
REMARK    6  A    between atoms: C_20  and  O_21
REMARK                            x       y       z     vdW  Elec       q    Type
REMARK                         _______ _______ _______ _____ _____    ______ ____
ROOT
ATOM      1  O   UNL     1     -12.160 -30.153   5.331  0.00  0.00    +0.000 OA
ATOM      2  C   UNL     1     -11.033 -30.627   5.252  0.00  0.00    +0.000 C 
ENDROOT
BRANCH   2   3
ATOM      3  O   UNL     1     -10.641 -31.682   4.480  0.00  0.00    +0.000 OA
BRANCH   3   4
ATOM      4  C   UNL     1     -10.215 -31.297   3.208  0.00  0.00    +0.000 C 
ATOM      5  C   UNL     1     -11.149 -31.228   2.098  0.00  0.00    +0.000 C 
ATOM      6  C   UNL     1     -10.904 -31.655   0.714  0.00  0.00    +0.000 C 
ATOM      7  N   UNL     1     -10.118 -32.965   0.861  0.00  0.00    +0.000 NA
ATOM      8  C   UNL     1      -9.997 -30.775  -0.002  0.00  0.00    +0.000 C 
ATOM      9  C   UNL     1      -8.783 -32.335   1.286  0.00  0.00    +0.000 C 
ATOM     10  C   UNL     1      -9.996 -33.665  -0.427  0.00  0.00    +0.000 C 
ATOM     11  C   UNL     1      -8.582 -31.221   0.369  0.00  0.00    +0.000 C 
ATOM     12  C   UNL     1      -9.013 -31.906   2.674  0.00  0.00    +0.000 C 
ENDBRANCH   3   4
ENDBRANCH   2   3
BRANCH   2  13
ATOM     13  C   UNL     1      -9.882 -30.119   6.056  0.00  0.00    +0.000 C 
BRANCH  13  14
ATOM     14  C   UNL     1      -8.832 -30.986   6.624  0.00  0.00    +0.000 A 
ATOM     15  C   UNL     1      -9.087 -31.745   7.771  0.00  0.00    +0.000 A 
ATOM     16  C   UNL     1      -8.093 -32.540   8.339  0.00  0.00    +0.000 A 
ATOM     17  C   UNL     1      -6.825 -32.579   7.770  0.00  0.00    +0.000 A 
ATOM     18  C   UNL     1      -6.552 -31.822   6.635  0.00  0.00    +0.000 A 
ATOM     19  C   UNL     1      -7.550 -31.029   6.072  0.00  0.00    +0.000 A 
ENDBRANCH  13  14
BRANCH  13  20
ATOM     20  C   UNL     1      -9.782 -28.701   6.215  0.00  0.00    +0.000 C 
BRANCH  20  21
ATOM     21  O   UNL     1      -9.688 -27.384   6.364  0.00  0.00    +0.000 OA
ATOM     22  H   UNL     1      -9.887 -27.129   7.282  0.00  0.00    +0.000 HD
ENDBRANCH  20  21
ENDBRANCH  13  20
ENDBRANCH   2  13
TORSDOF 6
ENDMDL
MODEL 9
REMARK VINA RESULT:      -4.0     16.221     18.435
REMARK  Name = Hyoscyamine.pdbqt.pdb
REMARK  6 active torsions:
REMARK  status: ('A' for Active; 'I' for Inactive)
REMARK    1  A    between atoms: C_2  and  O_3
REMARK    2  A    between atoms: C_2  and  C_13
REMARK    3  A    between atoms: O_3  and  C_4
REMARK    4  A    between atoms: C_13  and  C_14
REMARK    5  A    between atoms: C_13  and  C_20
REMARK    6  A    between atoms: C_20  and  O_21
REMARK                            x       y       z     vdW  Elec       q    Type
REMARK                         _______ _______ _______ _____ _____    ______ ____
ROOT
ATOM      1  O   UNL     1      -1.198 -15.596  -1.051  0.00  0.00    +0.000 OA
ATOM      2  C   UNL     1      -2.414 -15.725  -1.119  0.00  0.00    +0.000 C 
ENDROOT
BRANCH   2   3
ATOM      3  O   UNL     1      -3.181 -16.628  -0.442  0.00  0.00    +0.000 OA
BRANCH   3   4
ATOM      4  C   UNL     1      -3.332 -16.310   0.908  0.00  0.00    +0.000 C 
ATOM      5  C   UNL     1      -2.535 -16.976   1.924  0.00  0.00    +0.000 C 
ATOM      6  C   UNL     1      -2.995 -17.439   3.239  0.00  0.00    +0.000 C 
ATOM      7  N   UNL     1      -4.381 -18.036   2.962  0.00  0.00    +0.000 NA
ATOM      8  C   UNL     1      -3.257 -16.351   4.166  0.00  0.00    +0.000 C 
ATOM      9  C   UNL     1      -5.123 -16.705   2.767  0.00  0.00    +0.000 C 
ATOM     10  C   UNL     1      -4.893 -18.771   4.129  0.00  0.00    +0.000 C 
ATOM     11  C   UNL     1      -4.673 -15.858   3.863  0.00  0.00    +0.000 C 
ATOM     12  C   UNL     1      -4.674 -16.232   1.449  0.00  0.00    +0.000 C 
ENDBRANCH   3   4
ENDBRANCH   2   3
BRANCH   2  13
ATOM     13  C   UNL     1      -3.267 -14.898  -2.025  0.00  0.00    +0.000 C 
BRANCH  13  14
ATOM     14  C   UNL     1      -4.035 -13.721  -1.579  0.00  0.00    +0.000 A 
ATOM     15  C   UNL     1      -5.397 -13.611  -1.880  0.00  0.00    +0.000 A 
ATOM     16  C   UNL     1      -6.127 -12.487  -1.496  0.00  0.00    +0.000 A 
ATOM     17  C   UNL     1      -5.499 -11.451  -0.813  0.00  0.00    +0.000 A 
ATOM     18  C   UNL     1      -4.144 -11.539  -0.515  0.00  0.00    +0.000 A 
ATOM     19  C   UNL     1      -3.419 -12.666  -0.901  0.00  0.00    +0.000 A 
ENDBRANCH  13  14
BRANCH  13  20
ATOM     20  C   UNL     1      -3.269 -15.251  -3.411  0.00  0.00    +0.000 C 
BRANCH  20  21
ATOM     21  O   UNL     1      -3.271 -15.579  -4.699  0.00  0.00    +0.000 OA
ATOM     22  H   UNL     1      -4.046 -16.129  -4.910  0.00  0.00    +0.000 HD
ENDBRANCH  20  21
ENDBRANCH  13  20
ENDBRANCH   2  13
TORSDOF 6
ENDMDL
