MODEL 1
REMARK VINA RESULT:      -6.2      0.000      0.000
REMARK  Name = 
REMARK  21 active torsions:
REMARK  status: ('A' for Active; 'I' for Inactive)
REMARK    1  A    between atoms: O_3  and  C_22
REMARK    2  A    between atoms: O_3  and  C_28
REMARK    3  A    between atoms: O_4  and  C_25
REMARK    4  A    between atoms: O_4  and  C_30
REMARK    5  A    between atoms: O_5  and  C_16
REMARK    6  A    between atoms: O_6  and  C_17
REMARK    7  A    between atoms: O_7  and  C_18
REMARK    8  A    between atoms: O_8  and  C_20
REMARK    9  A    between atoms: O_9  and  C_21
REMARK   10  A    between atoms: O_10  and  C_23
REMARK   11  A    between atoms: O_11  and  C_26
REMARK   12  A    between atoms: O_13  and  C_36
REMARK   13  A    between atoms: O_15  and  C_45
REMARK   14  A    between atoms: O_15  and  C_48
REMARK   15  A    between atoms: C_19  and  C_26
REMARK   16  A    between atoms: C_24  and  C_27
REMARK   17  A    between atoms: C_29  and  C_37
REMARK   18  A    between atoms: C_35  and  C_38
REMARK   19  A    between atoms: C_37  and  C_39
REMARK   20  A    between atoms: C_42  and  C_46
REMARK   21  A    between atoms: C_42  and  C_47
REMARK                            x       y       z     vdW  Elec       q    Type
REMARK                         _______ _______ _______ _____ _____    ______ ____
ROOT
ATOM      1  O   UNL     1      -2.363 -35.548  -8.815  0.00  0.00    +0.000 OA
ATOM      2  O   UNL     1      -1.974 -31.561  -9.475  0.00  0.00    +0.000 OA
ATOM      3  C   UNL     1      -5.071 -34.330  -6.677  0.00  0.00    +0.000 A 
ATOM      4  C   UNL     1      -4.193 -35.213  -7.331  0.00  0.00    +0.000 A 
ATOM      5  C   UNL     1      -1.165 -33.755  -9.906  0.00  0.00    +0.000 A 
ATOM      6  C   UNL     1      -3.212 -34.670  -8.184  0.00  0.00    +0.000 A 
ATOM      7  C   UNL     1      -3.122 -33.291  -8.381  0.00  0.00    +0.000 A 
ATOM      8  C   UNL     1      -2.076 -32.770  -9.270  0.00  0.00    +0.000 A 
ATOM      9  C   UNL     1      -5.007 -32.952  -6.906  0.00  0.00    +0.000 A 
ATOM     10  C   UNL     1      -1.349 -35.055  -9.613  0.00  0.00    +0.000 A 
ATOM     11  C   UNL     1      -4.025 -32.436  -7.745  0.00  0.00    +0.000 A 
ENDROOT
BRANCH  10  12
ATOM     12  C   UNL     1      -0.492 -36.113 -10.168  0.00  0.00    +0.000 A 
ATOM     13  C   UNL     1      -1.032 -37.063 -11.041  0.00  0.00    +0.000 A 
ATOM     14  C   UNL     1       0.865 -36.199  -9.829  0.00  0.00    +0.000 A 
ATOM     15  C   UNL     1      -0.224 -38.069 -11.576  0.00  0.00    +0.000 A 
ATOM     16  C   UNL     1       1.673 -37.206 -10.369  0.00  0.00    +0.000 A 
ATOM     17  C   UNL     1       1.133 -38.143 -11.250  0.00  0.00    +0.000 A 
BRANCH  17  18
ATOM     18  O   UNL     1       1.809 -39.170 -11.848  0.00  0.00    +0.000 OA
ATOM     19  C   UNL     1       1.684 -39.285 -13.259  0.00  0.00    +0.000 C 
ENDBRANCH  17  18
ENDBRANCH  10  12
BRANCH  11  20
ATOM     20  O   UNL     1      -4.013 -31.077  -7.905  0.00  0.00    +0.000 OA
ATOM     21  H   UNL     1      -4.220 -30.662  -7.038  0.00  0.00    +0.000 HD
ENDBRANCH  11  20
BRANCH   4  22
ATOM     22  C   UNL     1      -4.263 -36.710  -7.101  0.00  0.00    +0.000 C 
BRANCH  22  23
ATOM     23  C   UNL     1      -3.355 -37.163  -5.988  0.00  0.00    +0.000 C 
ATOM     24  C   UNL     1      -2.226 -37.895  -6.066  0.00  0.00    +0.000 C 
ATOM     25  C   UNL     1      -1.612 -38.426  -7.331  0.00  0.00    +0.000 C 
ATOM     26  C   UNL     1      -1.457 -38.241  -4.818  0.00  0.00    +0.000 C 
ENDBRANCH  22  23
ENDBRANCH   4  22
BRANCH   5  27
ATOM     27  O   UNL     1      -0.127 -33.303 -10.700  0.00  0.00    +0.000 OA
BRANCH  27  33
ATOM     28  O   UNL     1      -0.299 -34.078 -12.932  0.00  0.00    +0.000 OA
ATOM     29  C   UNL     1       1.651 -31.965 -12.713  0.00  0.00    +0.000 C 
ATOM     30  C   UNL     1       1.866 -33.170 -13.636  0.00  0.00    +0.000 C 
ATOM     31  C   UNL     1       0.162 -31.697 -12.492  0.00  0.00    +0.000 C 
ATOM     32  C   UNL     1       1.094 -34.380 -13.096  0.00  0.00    +0.000 C 
ATOM     33  C   UNL     1      -0.548 -32.988 -12.033  0.00  0.00    +0.000 C 
ATOM     34  C   UNL     1       1.194 -35.574 -14.041  0.00  0.00    +0.000 C 
BRANCH  29  35
ATOM     35  O   UNL     1       2.277 -30.816 -13.315  0.00  0.00    +0.000 OA
ATOM     36  H   UNL     1       3.237 -30.946 -13.164  0.00  0.00    +0.000 HD
ENDBRANCH  29  35
BRANCH  30  37
ATOM     37  O   UNL     1       3.269 -33.445 -13.718  0.00  0.00    +0.000 OA
ATOM     38  H   UNL     1       3.386 -34.315 -13.285  0.00  0.00    +0.000 HD
ENDBRANCH  30  37
BRANCH  31  39
ATOM     39  O   UNL     1      -0.376 -31.187 -13.730  0.00  0.00    +0.000 OA
ATOM     40  H   UNL     1      -0.200 -30.228 -13.747  0.00  0.00    +0.000 HD
ENDBRANCH  31  39
ENDBRANCH  27  33
ENDBRANCH   5  27
BRANCH   3  41
ATOM     41  O   UNL     1      -6.067 -34.840  -5.884  0.00  0.00    +0.000 OA
BRANCH  41  47
ATOM     42  O   UNL     1      -5.587 -35.832  -3.790  0.00  0.00    +0.000 OA
ATOM     43  C   UNL     1      -6.978 -33.743  -2.427  0.00  0.00    +0.000 C 
ATOM     44  C   UNL     1      -6.595 -35.048  -1.724  0.00  0.00    +0.000 C 
ATOM     45  C   UNL     1      -7.112 -33.952  -3.934  0.00  0.00    +0.000 C 
ATOM     46  C   UNL     1      -5.341 -35.636  -2.386  0.00  0.00    +0.000 C 
ATOM     47  C   UNL     1      -5.830 -34.607  -4.480  0.00  0.00    +0.000 C 
BRANCH  44  48
ATOM     48  O   UNL     1      -6.377 -34.784  -0.336  0.00  0.00    +0.000 OA
ATOM     49  H   UNL     1      -6.150 -35.653   0.057  0.00  0.00    +0.000 HD
ENDBRANCH  44  48
BRANCH  45  50
ATOM     50  O   UNL     1      -7.372 -32.679  -4.548  0.00  0.00    +0.000 OA
ATOM     51  H   UNL     1      -6.496 -32.307  -4.774  0.00  0.00    +0.000 HD
ENDBRANCH  45  50
BRANCH  43  52
ATOM     52  O   UNL     1      -8.217 -33.264  -1.877  0.00  0.00    +0.000 OA
ATOM     53  H   UNL     1      -8.724 -34.070  -1.651  0.00  0.00    +0.000 HD
ENDBRANCH  43  52
BRANCH  46  54
ATOM     54  C   UNL     1      -4.970 -36.989  -1.765  0.00  0.00    +0.000 C 
BRANCH  54  55
ATOM     55  O   UNL     1      -4.206 -36.781  -0.575  0.00  0.00    +0.000 OA
ATOM     56  H   UNL     1      -4.821 -36.452   0.101  0.00  0.00    +0.000 HD
ENDBRANCH  54  55
ENDBRANCH  46  54
ENDBRANCH  41  47
ENDBRANCH   3  41
TORSDOF 17
ENDMDL
MODEL 2
REMARK VINA RESULT:      -6.0      3.931     11.082
REMARK  Name = 
REMARK  21 active torsions:
REMARK  status: ('A' for Active; 'I' for Inactive)
REMARK    1  A    between atoms: O_3  and  C_22
REMARK    2  A    between atoms: O_3  and  C_28
REMARK    3  A    between atoms: O_4  and  C_25
REMARK    4  A    between atoms: O_4  and  C_30
REMARK    5  A    between atoms: O_5  and  C_16
REMARK    6  A    between atoms: O_6  and  C_17
REMARK    7  A    between atoms: O_7  and  C_18
REMARK    8  A    between atoms: O_8  and  C_20
REMARK    9  A    between atoms: O_9  and  C_21
REMARK   10  A    between atoms: O_10  and  C_23
REMARK   11  A    between atoms: O_11  and  C_26
REMARK   12  A    between atoms: O_13  and  C_36
REMARK   13  A    between atoms: O_15  and  C_45
REMARK   14  A    between atoms: O_15  and  C_48
REMARK   15  A    between atoms: C_19  and  C_26
REMARK   16  A    between atoms: C_24  and  C_27
REMARK   17  A    between atoms: C_29  and  C_37
REMARK   18  A    between atoms: C_35  and  C_38
REMARK   19  A    between atoms: C_37  and  C_39
REMARK   20  A    between atoms: C_42  and  C_46
REMARK   21  A    between atoms: C_42  and  C_47
REMARK                            x       y       z     vdW  Elec       q    Type
REMARK                         _______ _______ _______ _____ _____    ______ ____
ROOT
ATOM      1  O   UNL     1      -4.121 -35.907  -2.462  0.00  0.00    +0.000 OA
ATOM      2  O   UNL     1      -8.005 -35.933  -1.279  0.00  0.00    +0.000 OA
ATOM      3  C   UNL     1      -5.473 -33.461  -4.823  0.00  0.00    +0.000 A 
ATOM      4  C   UNL     1      -4.556 -34.292  -4.155  0.00  0.00    +0.000 A 
ATOM      5  C   UNL     1      -5.815 -36.815  -0.996  0.00  0.00    +0.000 A 
ATOM      6  C   UNL     1      -5.032 -35.103  -3.104  0.00  0.00    +0.000 A 
ATOM      7  C   UNL     1      -6.376 -35.071  -2.733  0.00  0.00    +0.000 A 
ATOM      8  C   UNL     1      -6.829 -35.942  -1.640  0.00  0.00    +0.000 A 
ATOM      9  C   UNL     1      -6.811 -33.400  -4.424  0.00  0.00    +0.000 A 
ATOM     10  C   UNL     1      -4.556 -36.761  -1.466  0.00  0.00    +0.000 A 
ATOM     11  C   UNL     1      -7.262 -34.215  -3.392  0.00  0.00    +0.000 A 
ENDROOT
BRANCH  10  12
ATOM     12  C   UNL     1      -3.478 -37.597  -0.918  0.00  0.00    +0.000 A 
ATOM     13  C   UNL     1      -3.566 -38.991  -0.999  0.00  0.00    +0.000 A 
ATOM     14  C   UNL     1      -2.359 -37.025  -0.299  0.00  0.00    +0.000 A 
ATOM     15  C   UNL     1      -2.545 -39.793  -0.485  0.00  0.00    +0.000 A 
ATOM     16  C   UNL     1      -1.335 -37.831   0.213  0.00  0.00    +0.000 A 
ATOM     17  C   UNL     1      -1.422 -39.220   0.116  0.00  0.00    +0.000 A 
BRANCH  17  18
ATOM     18  O   UNL     1      -0.496 -40.117   0.570  0.00  0.00    +0.000 OA
ATOM     19  C   UNL     1      -0.830 -40.844   1.746  0.00  0.00    +0.000 C 
ENDBRANCH  17  18
ENDBRANCH  10  12
BRANCH  11  20
ATOM     20  O   UNL     1      -8.588 -34.114  -3.070  0.00  0.00    +0.000 OA
ATOM     21  H   UNL     1      -8.687 -33.420  -2.381  0.00  0.00    +0.000 HD
ENDBRANCH  11  20
BRANCH   4  22
ATOM     22  C   UNL     1      -3.098 -34.355  -4.569  0.00  0.00    +0.000 C 
BRANCH  22  23
ATOM     23  C   UNL     1      -2.838 -35.432  -5.590  0.00  0.00    +0.000 C 
ATOM     24  C   UNL     1      -2.263 -36.638  -5.415  0.00  0.00    +0.000 C 
ATOM     25  C   UNL     1      -1.747 -37.181  -4.112  0.00  0.00    +0.000 C 
ATOM     26  C   UNL     1      -2.098 -37.578  -6.581  0.00  0.00    +0.000 C 
ENDBRANCH  22  23
ENDBRANCH   4  22
BRANCH   5  27
ATOM     27  O   UNL     1      -6.211 -37.696  -0.005  0.00  0.00    +0.000 OA
BRANCH  27  33
ATOM     28  O   UNL     1      -5.323 -36.817   2.008  0.00  0.00    +0.000 OA
ATOM     29  C   UNL     1      -6.916 -39.168   2.512  0.00  0.00    +0.000 C 
ATOM     30  C   UNL     1      -5.623 -38.885   3.288  0.00  0.00    +0.000 C 
ATOM     31  C   UNL     1      -7.551 -37.873   2.007  0.00  0.00    +0.000 C 
ATOM     32  C   UNL     1      -4.682 -38.028   2.432  0.00  0.00    +0.000 C 
ATOM     33  C   UNL     1      -6.510 -37.037   1.232  0.00  0.00    +0.000 C 
ATOM     34  C   UNL     1      -3.428 -37.634   3.206  0.00  0.00    +0.000 C 
BRANCH  29  35
ATOM     35  O   UNL     1      -7.827 -39.858   3.387  0.00  0.00    +0.000 OA
ATOM     36  H   UNL     1      -7.631 -40.809   3.254  0.00  0.00    +0.000 HD
ENDBRANCH  29  35
BRANCH  30  37
ATOM     37  O   UNL     1      -5.013 -40.132   3.640  0.00  0.00    +0.000 OA
ATOM     38  H   UNL     1      -4.215 -39.891   4.154  0.00  0.00    +0.000 HD
ENDBRANCH  30  37
BRANCH  31  39
ATOM     39  O   UNL     1      -8.074 -37.169   3.153  0.00  0.00    +0.000 OA
ATOM     40  H   UNL     1      -7.531 -36.367   3.270  0.00  0.00    +0.000 HD
ENDBRANCH  31  39
ENDBRANCH  27  33
ENDBRANCH   5  27
BRANCH   3  41
ATOM     41  O   UNL     1      -5.021 -32.626  -5.813  0.00  0.00    +0.000 OA
BRANCH  41  47
ATOM     42  O   UNL     1      -5.252 -34.584  -7.121  0.00  0.00    +0.000 OA
ATOM     43  C   UNL     1      -4.222 -33.231  -9.416  0.00  0.00    +0.000 C 
ATOM     44  C   UNL     1      -4.342 -34.757  -9.367  0.00  0.00    +0.000 C 
ATOM     45  C   UNL     1      -4.097 -32.646  -8.011  0.00  0.00    +0.000 C 
ATOM     46  C   UNL     1      -5.487 -35.149  -8.422  0.00  0.00    +0.000 C 
ATOM     47  C   UNL     1      -5.255 -33.157  -7.134  0.00  0.00    +0.000 C 
BRANCH  44  48
ATOM     48  O   UNL     1      -4.563 -35.251 -10.689  0.00  0.00    +0.000 OA
ATOM     49  H   UNL     1      -3.814 -35.858 -10.864  0.00  0.00    +0.000 HD
ENDBRANCH  44  48
BRANCH  45  50
ATOM     50  O   UNL     1      -4.091 -31.212  -8.114  0.00  0.00    +0.000 OA
ATOM     51  H   UNL     1      -3.183 -30.967  -8.383  0.00  0.00    +0.000 HD
ENDBRANCH  45  50
BRANCH  43  52
ATOM     52  O   UNL     1      -3.076 -32.879 -10.207  0.00  0.00    +0.000 OA
ATOM     53  H   UNL     1      -2.310 -32.987  -9.608  0.00  0.00    +0.000 HD
ENDBRANCH  43  52
BRANCH  46  54
ATOM     54  C   UNL     1      -5.589 -36.674  -8.279  0.00  0.00    +0.000 C 
BRANCH  54  55
ATOM     55  O   UNL     1      -6.171 -37.232  -9.459  0.00  0.00    +0.000 OA
ATOM     56  H   UNL     1      -7.131 -37.266  -9.312  0.00  0.00    +0.000 HD
ENDBRANCH  54  55
ENDBRANCH  46  54
ENDBRANCH  41  47
ENDBRANCH   3  41
TORSDOF 17
ENDMDL
MODEL 3
REMARK VINA RESULT:      -5.9     20.574     24.552
REMARK  Name = 
REMARK  21 active torsions:
REMARK  status: ('A' for Active; 'I' for Inactive)
REMARK    1  A    between atoms: O_3  and  C_22
REMARK    2  A    between atoms: O_3  and  C_28
REMARK    3  A    between atoms: O_4  and  C_25
REMARK    4  A    between atoms: O_4  and  C_30
REMARK    5  A    between atoms: O_5  and  C_16
REMARK    6  A    between atoms: O_6  and  C_17
REMARK    7  A    between atoms: O_7  and  C_18
REMARK    8  A    between atoms: O_8  and  C_20
REMARK    9  A    between atoms: O_9  and  C_21
REMARK   10  A    between atoms: O_10  and  C_23
REMARK   11  A    between atoms: O_11  and  C_26
REMARK   12  A    between atoms: O_13  and  C_36
REMARK   13  A    between atoms: O_15  and  C_45
REMARK   14  A    between atoms: O_15  and  C_48
REMARK   15  A    between atoms: C_19  and  C_26
REMARK   16  A    between atoms: C_24  and  C_27
REMARK   17  A    between atoms: C_29  and  C_37
REMARK   18  A    between atoms: C_35  and  C_38
REMARK   19  A    between atoms: C_37  and  C_39
REMARK   20  A    between atoms: C_42  and  C_46
REMARK   21  A    between atoms: C_42  and  C_47
REMARK                            x       y       z     vdW  Elec       q    Type
REMARK                         _______ _______ _______ _____ _____    ______ ____
ROOT
ATOM      1  O   UNL     1     -16.252 -17.321  -4.077  0.00  0.00    +0.000 OA
ATOM      2  O   UNL     1     -18.572 -20.641  -4.365  0.00  0.00    +0.000 OA
ATOM      3  C   UNL     1     -18.168 -16.443  -7.067  0.00  0.00    +0.000 A 
ATOM      4  C   UNL     1     -17.243 -16.354  -6.012  0.00  0.00    +0.000 A 
ATOM      5  C   UNL     1     -16.840 -19.498  -3.205  0.00  0.00    +0.000 A 
ATOM      6  C   UNL     1     -17.161 -17.428  -5.102  0.00  0.00    +0.000 A 
ATOM      7  C   UNL     1     -17.984 -18.545  -5.243  0.00  0.00    +0.000 A 
ATOM      8  C   UNL     1     -17.855 -19.645  -4.278  0.00  0.00    +0.000 A 
ATOM      9  C   UNL     1     -19.021 -17.545  -7.184  0.00  0.00    +0.000 A 
ATOM     10  C   UNL     1     -16.097 -18.377  -3.198  0.00  0.00    +0.000 A 
ATOM     11  C   UNL     1     -18.917 -18.598  -6.282  0.00  0.00    +0.000 A 
ENDROOT
BRANCH  10  12
ATOM     12  C   UNL     1     -15.048 -18.137  -2.195  0.00  0.00    +0.000 A 
ATOM     13  C   UNL     1     -15.214 -17.130  -1.238  0.00  0.00    +0.000 A 
ATOM     14  C   UNL     1     -13.870 -18.894  -2.184  0.00  0.00    +0.000 A 
ATOM     15  C   UNL     1     -14.225 -16.899  -0.280  0.00  0.00    +0.000 A 
ATOM     16  C   UNL     1     -12.881 -18.662  -1.220  0.00  0.00    +0.000 A 
ATOM     17  C   UNL     1     -13.058 -17.666  -0.260  0.00  0.00    +0.000 A 
BRANCH  17  18
ATOM     18  O   UNL     1     -12.176 -17.340   0.733  0.00  0.00    +0.000 OA
ATOM     19  C   UNL     1     -12.030 -15.958   1.032  0.00  0.00    +0.000 C 
ENDBRANCH  17  18
ENDBRANCH  10  12
BRANCH  11  20
ATOM     20  O   UNL     1     -19.772 -19.650  -6.471  0.00  0.00    +0.000 OA
ATOM     21  H   UNL     1     -19.244 -20.479  -6.478  0.00  0.00    +0.000 HD
ENDBRANCH  11  20
BRANCH   4  22
ATOM     22  C   UNL     1     -16.323 -15.157  -5.866  0.00  0.00    +0.000 C 
BRANCH  22  23
ATOM     23  C   UNL     1     -16.894 -14.102  -4.954  0.00  0.00    +0.000 C 
ATOM     24  C   UNL     1     -17.524 -12.956  -5.281  0.00  0.00    +0.000 C 
ATOM     25  C   UNL     1     -17.802 -12.478  -6.679  0.00  0.00    +0.000 C 
ATOM     26  C   UNL     1     -18.026 -12.031  -4.204  0.00  0.00    +0.000 C 
ENDBRANCH  22  23
ENDBRANCH   4  22
BRANCH   5  27
ATOM     27  O   UNL     1     -16.641 -20.537  -2.313  0.00  0.00    +0.000 OA
BRANCH  27  33
ATOM     28  O   UNL     1     -16.927 -19.948  -0.036  0.00  0.00    +0.000 OA
ATOM     29  C   UNL     1     -16.989 -22.810  -0.386  0.00  0.00    +0.000 C 
ATOM     30  C   UNL     1     -16.317 -22.158   0.829  0.00  0.00    +0.000 C 
ATOM     31  C   UNL     1     -18.094 -21.918  -0.950  0.00  0.00    +0.000 C 
ATOM     32  C   UNL     1     -15.845 -20.745   0.464  0.00  0.00    +0.000 C 
ATOM     33  C   UNL     1     -17.551 -20.496  -1.207  0.00  0.00    +0.000 C 
ATOM     34  C   UNL     1     -15.265 -20.020   1.674  0.00  0.00    +0.000 C 
BRANCH  29  35
ATOM     35  O   UNL     1     -17.537 -24.077   0.025  0.00  0.00    +0.000 OA
ATOM     36  H   UNL     1     -17.926 -24.458  -0.790  0.00  0.00    +0.000 HD
ENDBRANCH  29  35
BRANCH  30  37
ATOM     37  O   UNL     1     -15.221 -22.980   1.247  0.00  0.00    +0.000 OA
ATOM     38  H   UNL     1     -14.421 -22.435   1.099  0.00  0.00    +0.000 HD
ENDBRANCH  30  37
BRANCH  31  39
ATOM     39  O   UNL     1     -19.184 -21.924  -0.004  0.00  0.00    +0.000 OA
ATOM     40  H   UNL     1     -19.852 -21.294  -0.331  0.00  0.00    +0.000 HD
ENDBRANCH  31  39
ENDBRANCH  27  33
ENDBRANCH   5  27
BRANCH   3  41
ATOM     41  O   UNL     1     -18.302 -15.387  -7.932  0.00  0.00    +0.000 OA
BRANCH  41  47
ATOM     42  O   UNL     1     -17.023 -16.736  -9.397  0.00  0.00    +0.000 OA
ATOM     43  C   UNL     1     -17.280 -14.801 -11.482  0.00  0.00    +0.000 C 
ATOM     44  C   UNL     1     -16.253 -15.934 -11.556  0.00  0.00    +0.000 C 
ATOM     45  C   UNL     1     -17.633 -14.476 -10.032  0.00  0.00    +0.000 C 
ATOM     46  C   UNL     1     -16.761 -17.139 -10.753  0.00  0.00    +0.000 C 
ATOM     47  C   UNL     1     -18.064 -15.764  -9.305  0.00  0.00    +0.000 C 
BRANCH  44  48
ATOM     48  O   UNL     1     -16.032 -16.276 -12.926  0.00  0.00    +0.000 OA
ATOM     49  H   UNL     1     -16.246 -15.463 -13.430  0.00  0.00    +0.000 HD
ENDBRANCH  44  48
BRANCH  45  50
ATOM     50  O   UNL     1     -18.671 -13.482 -10.028  0.00  0.00    +0.000 OA
ATOM     51  H   UNL     1     -18.932 -13.371  -9.092  0.00  0.00    +0.000 HD
ENDBRANCH  45  50
BRANCH  43  52
ATOM     52  O   UNL     1     -16.742 -13.641 -12.136  0.00  0.00    +0.000 OA
ATOM     53  H   UNL     1     -15.836 -13.896 -12.405  0.00  0.00    +0.000 HD
ENDBRANCH  43  52
BRANCH  46  54
ATOM     54  C   UNL     1     -15.724 -18.269 -10.732  0.00  0.00    +0.000 C 
BRANCH  54  55
ATOM     55  O   UNL     1     -15.882 -19.091 -11.891  0.00  0.00    +0.000 OA
ATOM     56  H   UNL     1     -15.043 -19.567 -12.015  0.00  0.00    +0.000 HD
ENDBRANCH  54  55
ENDBRANCH  46  54
ENDBRANCH  41  47
ENDBRANCH   3  41
TORSDOF 17
ENDMDL
MODEL 4
REMARK VINA RESULT:      -5.9      2.014      9.873
REMARK  Name = 
REMARK  21 active torsions:
REMARK  status: ('A' for Active; 'I' for Inactive)
REMARK    1  A    between atoms: O_3  and  C_22
REMARK    2  A    between atoms: O_3  and  C_28
REMARK    3  A    between atoms: O_4  and  C_25
REMARK    4  A    between atoms: O_4  and  C_30
REMARK    5  A    between atoms: O_5  and  C_16
REMARK    6  A    between atoms: O_6  and  C_17
REMARK    7  A    between atoms: O_7  and  C_18
REMARK    8  A    between atoms: O_8  and  C_20
REMARK    9  A    between atoms: O_9  and  C_21
REMARK   10  A    between atoms: O_10  and  C_23
REMARK   11  A    between atoms: O_11  and  C_26
REMARK   12  A    between atoms: O_13  and  C_36
REMARK   13  A    between atoms: O_15  and  C_45
REMARK   14  A    between atoms: O_15  and  C_48
REMARK   15  A    between atoms: C_19  and  C_26
REMARK   16  A    between atoms: C_24  and  C_27
REMARK   17  A    between atoms: C_29  and  C_37
REMARK   18  A    between atoms: C_35  and  C_38
REMARK   19  A    between atoms: C_37  and  C_39
REMARK   20  A    between atoms: C_42  and  C_46
REMARK   21  A    between atoms: C_42  and  C_47
REMARK                            x       y       z     vdW  Elec       q    Type
REMARK                         _______ _______ _______ _____ _____    ______ ____
ROOT
ATOM      1  O   UNL     1      -2.476 -35.581  -7.122  0.00  0.00    +0.000 OA
ATOM      2  O   UNL     1      -4.439 -32.195  -6.043  0.00  0.00    +0.000 OA
ATOM      3  C   UNL     1      -1.706 -33.500 -10.031  0.00  0.00    +0.000 A 
ATOM      4  C   UNL     1      -1.737 -34.607  -9.164  0.00  0.00    +0.000 A 
ATOM      5  C   UNL     1      -3.875 -34.443  -5.512  0.00  0.00    +0.000 A 
ATOM      6  C   UNL     1      -2.457 -34.489  -7.957  0.00  0.00    +0.000 A 
ATOM      7  C   UNL     1      -3.112 -33.302  -7.631  0.00  0.00    +0.000 A 
ATOM      8  C   UNL     1      -3.859 -33.229  -6.368  0.00  0.00    +0.000 A 
ATOM      9  C   UNL     1      -2.328 -32.297  -9.685  0.00  0.00    +0.000 A 
ATOM     10  C   UNL     1      -3.218 -35.529  -5.958  0.00  0.00    +0.000 A 
ATOM     11  C   UNL     1      -3.041 -32.206  -8.494  0.00  0.00    +0.000 A 
ENDROOT
BRANCH  10  12
ATOM     12  C   UNL     1      -3.187 -36.790  -5.202  0.00  0.00    +0.000 A 
ATOM     13  C   UNL     1      -4.006 -37.856  -5.590  0.00  0.00    +0.000 A 
ATOM     14  C   UNL     1      -2.357 -36.947  -4.085  0.00  0.00    +0.000 A 
ATOM     15  C   UNL     1      -3.979 -39.060  -4.881  0.00  0.00    +0.000 A 
ATOM     16  C   UNL     1      -2.330 -38.155  -3.378  0.00  0.00    +0.000 A 
ATOM     17  C   UNL     1      -3.138 -39.219  -3.778  0.00  0.00    +0.000 A 
BRANCH  17  18
ATOM     18  O   UNL     1      -3.206 -40.446  -3.180  0.00  0.00    +0.000 OA
ATOM     19  C   UNL     1      -2.414 -41.482  -3.749  0.00  0.00    +0.000 C 
ENDBRANCH  17  18
ENDBRANCH  10  12
BRANCH  11  20
ATOM     20  O   UNL     1      -3.639 -31.003  -8.232  0.00  0.00    +0.000 OA
ATOM     21  H   UNL     1      -4.571 -31.048  -8.541  0.00  0.00    +0.000 HD
ENDBRANCH  11  20
BRANCH   4  22
ATOM     22  C   UNL     1      -1.053 -35.912  -9.522  0.00  0.00    +0.000 C 
BRANCH  22  23
ATOM     23  C   UNL     1      -2.038 -37.021  -9.790  0.00  0.00    +0.000 C 
ATOM     24  C   UNL     1      -2.152 -38.213  -9.172  0.00  0.00    +0.000 C 
ATOM     25  C   UNL     1      -1.289 -38.700  -8.041  0.00  0.00    +0.000 C 
ATOM     26  C   UNL     1      -3.218 -39.190  -9.596  0.00  0.00    +0.000 C 
ENDBRANCH  22  23
ENDBRANCH   4  22
BRANCH   5  27
ATOM     27  O   UNL     1      -4.618 -34.439  -4.346  0.00  0.00    +0.000 OA
BRANCH  27  33
ATOM     28  O   UNL     1      -6.894 -33.805  -4.526  0.00  0.00    +0.000 OA
ATOM     29  C   UNL     1      -6.417 -35.291  -2.100  0.00  0.00    +0.000 C 
ATOM     30  C   UNL     1      -7.382 -34.099  -2.142  0.00  0.00    +0.000 C 
ATOM     31  C   UNL     1      -6.298 -35.953  -3.473  0.00  0.00    +0.000 C 
ATOM     32  C   UNL     1      -6.965 -33.135  -3.260  0.00  0.00    +0.000 C 
ATOM     33  C   UNL     1      -5.962 -34.896  -4.546  0.00  0.00    +0.000 C 
ATOM     34  C   UNL     1      -7.960 -31.987  -3.407  0.00  0.00    +0.000 C 
BRANCH  29  35
ATOM     35  O   UNL     1      -6.909 -36.238  -1.134  0.00  0.00    +0.000 OA
ATOM     36  H   UNL     1      -7.840 -36.401  -1.395  0.00  0.00    +0.000 HD
ENDBRANCH  29  35
BRANCH  30  37
ATOM     37  O   UNL     1      -7.369 -33.449  -0.866  0.00  0.00    +0.000 OA
ATOM     38  H   UNL     1      -6.712 -33.943  -0.333  0.00  0.00    +0.000 HD
ENDBRANCH  30  37
BRANCH  31  39
ATOM     39  O   UNL     1      -7.546 -36.626  -3.740  0.00  0.00    +0.000 OA
ATOM     40  H   UNL     1      -7.370 -37.584  -3.703  0.00  0.00    +0.000 HD
ENDBRANCH  31  39
ENDBRANCH  27  33
ENDBRANCH   5  27
BRANCH   3  41
ATOM     41  O   UNL     1      -0.968 -33.575 -11.185  0.00  0.00    +0.000 OA
BRANCH  41  47
ATOM     42  O   UNL     1      -0.175 -31.731 -12.439  0.00  0.00    +0.000 OA
ATOM     43  C   UNL     1       2.495 -32.208 -11.545  0.00  0.00    +0.000 C 
ATOM     44  C   UNL     1       2.195 -31.282 -12.727  0.00  0.00    +0.000 C 
ATOM     45  C   UNL     1       1.387 -33.243 -11.364  0.00  0.00    +0.000 C 
ATOM     46  C   UNL     1       0.795 -30.676 -12.558  0.00  0.00    +0.000 C 
ATOM     47  C   UNL     1       0.025 -32.531 -11.274  0.00  0.00    +0.000 C 
BRANCH  44  48
ATOM     48  O   UNL     1       3.199 -30.268 -12.793  0.00  0.00    +0.000 OA
ATOM     49  H   UNL     1       2.754 -29.494 -13.195  0.00  0.00    +0.000 HD
ENDBRANCH  44  48
BRANCH  45  50
ATOM     50  O   UNL     1       1.672 -34.015 -10.186  0.00  0.00    +0.000 OA
ATOM     51  H   UNL     1       1.217 -33.557  -9.450  0.00  0.00    +0.000 HD
ENDBRANCH  45  50
BRANCH  43  52
ATOM     52  O   UNL     1       3.755 -32.861 -11.773  0.00  0.00    +0.000 OA
ATOM     53  H   UNL     1       3.582 -33.506 -12.488  0.00  0.00    +0.000 HD
ENDBRANCH  43  52
BRANCH  46  54
ATOM     54  C   UNL     1       0.419 -29.804 -13.764  0.00  0.00    +0.000 C 
BRANCH  54  55
ATOM     55  O   UNL     1       0.099 -28.482 -13.324  0.00  0.00    +0.000 OA
ATOM     56  H   UNL     1      -0.592 -28.571 -12.645  0.00  0.00    +0.000 HD
ENDBRANCH  54  55
ENDBRANCH  46  54
ENDBRANCH  41  47
ENDBRANCH   3  41
TORSDOF 17
ENDMDL
MODEL 5
REMARK VINA RESULT:      -5.7      3.939     11.577
REMARK  Name = 
REMARK  21 active torsions:
REMARK  status: ('A' for Active; 'I' for Inactive)
REMARK    1  A    between atoms: O_3  and  C_22
REMARK    2  A    between atoms: O_3  and  C_28
REMARK    3  A    between atoms: O_4  and  C_25
REMARK    4  A    between atoms: O_4  and  C_30
REMARK    5  A    between atoms: O_5  and  C_16
REMARK    6  A    between atoms: O_6  and  C_17
REMARK    7  A    between atoms: O_7  and  C_18
REMARK    8  A    between atoms: O_8  and  C_20
REMARK    9  A    between atoms: O_9  and  C_21
REMARK   10  A    between atoms: O_10  and  C_23
REMARK   11  A    between atoms: O_11  and  C_26
REMARK   12  A    between atoms: O_13  and  C_36
REMARK   13  A    between atoms: O_15  and  C_45
REMARK   14  A    between atoms: O_15  and  C_48
REMARK   15  A    between atoms: C_19  and  C_26
REMARK   16  A    between atoms: C_24  and  C_27
REMARK   17  A    between atoms: C_29  and  C_37
REMARK   18  A    between atoms: C_35  and  C_38
REMARK   19  A    between atoms: C_37  and  C_39
REMARK   20  A    between atoms: C_42  and  C_46
REMARK   21  A    between atoms: C_42  and  C_47
REMARK                            x       y       z     vdW  Elec       q    Type
REMARK                         _______ _______ _______ _____ _____    ______ ____
ROOT
ATOM      1  O   UNL     1      -6.203 -35.273  -2.165  0.00  0.00    +0.000 OA
ATOM      2  O   UNL     1      -2.631 -37.149  -2.618  0.00  0.00    +0.000 OA
ATOM      3  C   UNL     1      -4.973 -33.495  -5.117  0.00  0.00    +0.000 A 
ATOM      4  C   UNL     1      -5.812 -33.883  -4.057  0.00  0.00    +0.000 A 
ATOM      5  C   UNL     1      -4.630 -36.918  -1.351  0.00  0.00    +0.000 A 
ATOM      6  C   UNL     1      -5.369 -34.907  -3.194  0.00  0.00    +0.000 A 
ATOM      7  C   UNL     1      -4.134 -35.523  -3.396  0.00  0.00    +0.000 A 
ATOM      8  C   UNL     1      -3.709 -36.577  -2.465  0.00  0.00    +0.000 A 
ATOM      9  C   UNL     1      -3.753 -34.142  -5.342  0.00  0.00    +0.000 A 
ATOM     10  C   UNL     1      -5.782 -36.230  -1.262  0.00  0.00    +0.000 A 
ATOM     11  C   UNL     1      -3.331 -35.142  -4.474  0.00  0.00    +0.000 A 
ENDROOT
BRANCH  10  12
ATOM     12  C   UNL     1      -6.756 -36.470  -0.186  0.00  0.00    +0.000 A 
ATOM     13  C   UNL     1      -7.587 -37.595  -0.235  0.00  0.00    +0.000 A 
ATOM     14  C   UNL     1      -6.882 -35.582   0.890  0.00  0.00    +0.000 A 
ATOM     15  C   UNL     1      -8.512 -37.832   0.784  0.00  0.00    +0.000 A 
ATOM     16  C   UNL     1      -7.808 -35.824   1.911  0.00  0.00    +0.000 A 
ATOM     17  C   UNL     1      -8.624 -36.954   1.865  0.00  0.00    +0.000 A 
BRANCH  17  18
ATOM     18  O   UNL     1      -9.563 -37.307   2.793  0.00  0.00    +0.000 OA
ATOM     19  C   UNL     1     -10.822 -36.651   2.715  0.00  0.00    +0.000 C 
ENDBRANCH  17  18
ENDBRANCH  10  12
BRANCH  11  20
ATOM     20  O   UNL     1      -2.119 -35.715  -4.747  0.00  0.00    +0.000 OA
ATOM     21  H   UNL     1      -2.273 -36.522  -5.287  0.00  0.00    +0.000 HD
ENDBRANCH  11  20
BRANCH   4  22
ATOM     22  C   UNL     1      -7.143 -33.200  -3.812  0.00  0.00    +0.000 C 
BRANCH  22  23
ATOM     23  C   UNL     1      -8.313 -34.103  -4.104  0.00  0.00    +0.000 C 
ATOM     24  C   UNL     1      -9.323 -34.465  -3.287  0.00  0.00    +0.000 C 
ATOM     25  C   UNL     1      -9.499 -34.019  -1.862  0.00  0.00    +0.000 C 
ATOM     26  C   UNL     1     -10.407 -35.387  -3.781  0.00  0.00    +0.000 C 
ENDBRANCH  22  23
ENDBRANCH   4  22
BRANCH   5  27
ATOM     27  O   UNL     1      -4.241 -37.859  -0.415  0.00  0.00    +0.000 OA
BRANCH  27  33
ATOM     28  O   UNL     1      -2.084 -38.200   0.504  0.00  0.00    +0.000 OA
ATOM     29  C   UNL     1      -4.136 -38.611   2.488  0.00  0.00    +0.000 C 
ATOM     30  C   UNL     1      -2.879 -39.487   2.431  0.00  0.00    +0.000 C 
ATOM     31  C   UNL     1      -3.871 -37.227   1.895  0.00  0.00    +0.000 C 
ATOM     32  C   UNL     1      -2.336 -39.523   0.997  0.00  0.00    +0.000 C 
ATOM     33  C   UNL     1      -3.248 -37.360   0.490  0.00  0.00    +0.000 C 
ATOM     34  C   UNL     1      -1.025 -40.298   0.916  0.00  0.00    +0.000 C 
BRANCH  29  35
ATOM     35  O   UNL     1      -4.543 -38.491   3.864  0.00  0.00    +0.000 OA
ATOM     36  H   UNL     1      -4.571 -39.412   4.198  0.00  0.00    +0.000 HD
ENDBRANCH  29  35
BRANCH  30  37
ATOM     37  O   UNL     1      -3.212 -40.802   2.892  0.00  0.00    +0.000 OA
ATOM     38  H   UNL     1      -2.355 -41.221   3.112  0.00  0.00    +0.000 HD
ENDBRANCH  30  37
BRANCH  31  39
ATOM     39  O   UNL     1      -3.008 -36.520   2.811  0.00  0.00    +0.000 OA
ATOM     40  H   UNL     1      -3.424 -36.566   3.692  0.00  0.00    +0.000 HD
ENDBRANCH  31  39
ENDBRANCH  27  33
ENDBRANCH   5  27
BRANCH   3  41
ATOM     41  O   UNL     1      -5.407 -32.539  -5.999  0.00  0.00    +0.000 OA
BRANCH  41  47
ATOM     42  O   UNL     1      -5.291 -34.348  -7.521  0.00  0.00    +0.000 OA
ATOM     43  C   UNL     1      -3.489 -32.891  -9.191  0.00  0.00    +0.000 C 
ATOM     44  C   UNL     1      -3.697 -34.399  -9.353  0.00  0.00    +0.000 C 
ATOM     45  C   UNL     1      -3.808 -32.444  -7.766  0.00  0.00    +0.000 C 
ATOM     46  C   UNL     1      -5.109 -34.774  -8.882  0.00  0.00    +0.000 C 
ATOM     47  C   UNL     1      -5.216 -32.930  -7.375  0.00  0.00    +0.000 C 
BRANCH  44  48
ATOM     48  O   UNL     1      -3.491 -34.754 -10.722  0.00  0.00    +0.000 OA
ATOM     49  H   UNL     1      -4.290 -34.436 -11.192  0.00  0.00    +0.000 HD
ENDBRANCH  44  48
BRANCH  45  50
ATOM     50  O   UNL     1      -3.694 -31.013  -7.700  0.00  0.00    +0.000 OA
ATOM     51  H   UNL     1      -3.434 -30.807  -6.780  0.00  0.00    +0.000 HD
ENDBRANCH  45  50
BRANCH  43  52
ATOM     52  O   UNL     1      -2.128 -32.569  -9.521  0.00  0.00    +0.000 OA
ATOM     53  H   UNL     1      -2.184 -31.775 -10.089  0.00  0.00    +0.000 HD
ENDBRANCH  43  52
BRANCH  46  54
ATOM     54  C   UNL     1      -5.331 -36.291  -8.951  0.00  0.00    +0.000 C 
BRANCH  54  55
ATOM     55  O   UNL     1      -5.890 -36.641 -10.219  0.00  0.00    +0.000 OA
ATOM     56  H   UNL     1      -6.198 -37.560 -10.148  0.00  0.00    +0.000 HD
ENDBRANCH  54  55
ENDBRANCH  46  54
ENDBRANCH  41  47
ENDBRANCH   3  41
TORSDOF 17
ENDMDL
MODEL 6
REMARK VINA RESULT:      -5.7     20.757     24.594
REMARK  Name = 
REMARK  21 active torsions:
REMARK  status: ('A' for Active; 'I' for Inactive)
REMARK    1  A    between atoms: O_3  and  C_22
REMARK    2  A    between atoms: O_3  and  C_28
REMARK    3  A    between atoms: O_4  and  C_25
REMARK    4  A    between atoms: O_4  and  C_30
REMARK    5  A    between atoms: O_5  and  C_16
REMARK    6  A    between atoms: O_6  and  C_17
REMARK    7  A    between atoms: O_7  and  C_18
REMARK    8  A    between atoms: O_8  and  C_20
REMARK    9  A    between atoms: O_9  and  C_21
REMARK   10  A    between atoms: O_10  and  C_23
REMARK   11  A    between atoms: O_11  and  C_26
REMARK   12  A    between atoms: O_13  and  C_36
REMARK   13  A    between atoms: O_15  and  C_45
REMARK   14  A    between atoms: O_15  and  C_48
REMARK   15  A    between atoms: C_19  and  C_26
REMARK   16  A    between atoms: C_24  and  C_27
REMARK   17  A    between atoms: C_29  and  C_37
REMARK   18  A    between atoms: C_35  and  C_38
REMARK   19  A    between atoms: C_37  and  C_39
REMARK   20  A    between atoms: C_42  and  C_46
REMARK   21  A    between atoms: C_42  and  C_47
REMARK                            x       y       z     vdW  Elec       q    Type
REMARK                         _______ _______ _______ _____ _____    ______ ____
ROOT
ATOM      1  O   UNL     1     -15.852 -16.765  -2.572  0.00  0.00    +0.000 OA
ATOM      2  O   UNL     1     -17.774 -20.280  -1.913  0.00  0.00    +0.000 OA
ATOM      3  C   UNL     1     -17.538 -17.130  -5.799  0.00  0.00    +0.000 A 
ATOM      4  C   UNL     1     -16.739 -16.593  -4.774  0.00  0.00    +0.000 A 
ATOM      5  C   UNL     1     -16.295 -18.615  -1.080  0.00  0.00    +0.000 A 
ATOM      6  C   UNL     1     -16.637 -17.306  -3.562  0.00  0.00    +0.000 A 
ATOM      7  C   UNL     1     -17.322 -18.509  -3.384  0.00  0.00    +0.000 A 
ATOM      8  C   UNL     1     -17.177 -19.223  -2.109  0.00  0.00    +0.000 A 
ATOM      9  C   UNL     1     -18.256 -18.314  -5.605  0.00  0.00    +0.000 A 
ATOM     10  C   UNL     1     -15.678 -17.461  -1.391  0.00  0.00    +0.000 A 
ATOM     11  C   UNL     1     -18.135 -19.007  -4.405  0.00  0.00    +0.000 A 
ENDROOT
BRANCH  10  12
ATOM     12  C   UNL     1     -14.766 -16.784  -0.457  0.00  0.00    +0.000 A 
ATOM     13  C   UNL     1     -13.381 -16.899  -0.627  0.00  0.00    +0.000 A 
ATOM     14  C   UNL     1     -15.255 -16.029   0.616  0.00  0.00    +0.000 A 
ATOM     15  C   UNL     1     -12.508 -16.255   0.253  0.00  0.00    +0.000 A 
ATOM     16  C   UNL     1     -14.378 -15.383   1.494  0.00  0.00    +0.000 A 
ATOM     17  C   UNL     1     -12.999 -15.489   1.313  0.00  0.00    +0.000 A 
BRANCH  17  18
ATOM     18  O   UNL     1     -12.038 -14.909   2.092  0.00  0.00    +0.000 OA
ATOM     19  C   UNL     1     -10.808 -14.582   1.458  0.00  0.00    +0.000 C 
ENDBRANCH  17  18
ENDBRANCH  10  12
BRANCH  11  20
ATOM     20  O   UNL     1     -18.852 -20.167  -4.296  0.00  0.00    +0.000 OA
ATOM     21  H   UNL     1     -19.366 -20.135  -3.458  0.00  0.00    +0.000 HD
ENDBRANCH  11  20
BRANCH   4  22
ATOM     22  C   UNL     1     -15.968 -15.301  -4.968  0.00  0.00    +0.000 C 
BRANCH  22  23
ATOM     23  C   UNL     1     -16.787 -14.086  -4.619  0.00  0.00    +0.000 C 
ATOM     24  C   UNL     1     -17.296 -13.148  -5.443  0.00  0.00    +0.000 C 
ATOM     25  C   UNL     1     -17.149 -13.124  -6.939  0.00  0.00    +0.000 C 
ATOM     26  C   UNL     1     -18.098 -12.002  -4.885  0.00  0.00    +0.000 C 
ENDBRANCH  22  23
ENDBRANCH   4  22
BRANCH   5  27
ATOM     27  O   UNL     1     -16.081 -19.286   0.110  0.00  0.00    +0.000 OA
BRANCH  27  33
ATOM     28  O   UNL     1     -15.787 -21.636   0.151  0.00  0.00    +0.000 OA
ATOM     29  C   UNL     1     -14.500 -20.388   2.410  0.00  0.00    +0.000 C 
ATOM     30  C   UNL     1     -15.223 -21.735   2.534  0.00  0.00    +0.000 C 
ATOM     31  C   UNL     1     -13.996 -20.161   0.984  0.00  0.00    +0.000 C 
ATOM     32  C   UNL     1     -16.321 -21.833   1.467  0.00  0.00    +0.000 C 
ATOM     33  C   UNL     1     -15.147 -20.364  -0.025  0.00  0.00    +0.000 C 
ATOM     34  C   UNL     1     -16.997 -23.201   1.486  0.00  0.00    +0.000 C 
BRANCH  29  35
ATOM     35  O   UNL     1     -13.394 -20.382   3.332  0.00  0.00    +0.000 OA
ATOM     36  H   UNL     1     -12.830 -21.133   3.053  0.00  0.00    +0.000 HD
ENDBRANCH  29  35
BRANCH  30  37
ATOM     37  O   UNL     1     -15.770 -21.846   3.853  0.00  0.00    +0.000 OA
ATOM     38  H   UNL     1     -15.388 -22.669   4.220  0.00  0.00    +0.000 HD
ENDBRANCH  30  37
BRANCH  31  39
ATOM     39  O   UNL     1     -12.903 -21.076   0.758  0.00  0.00    +0.000 OA
ATOM     40  H   UNL     1     -12.608 -20.950  -0.162  0.00  0.00    +0.000 HD
ENDBRANCH  31  39
ENDBRANCH  27  33
ENDBRANCH   5  27
BRANCH   3  41
ATOM     41  O   UNL     1     -17.693 -16.426  -6.966  0.00  0.00    +0.000 OA
BRANCH  41  47
ATOM     42  O   UNL     1     -16.901 -17.290  -9.021  0.00  0.00    +0.000 OA
ATOM     43  C   UNL     1     -19.569 -17.489 -10.022  0.00  0.00    +0.000 C 
ATOM     44  C   UNL     1     -18.353 -17.590 -10.946  0.00  0.00    +0.000 C 
ATOM     45  C   UNL     1     -19.237 -16.688  -8.764  0.00  0.00    +0.000 C 
ATOM     46  C   UNL     1     -17.155 -18.136 -10.156  0.00  0.00    +0.000 C 
ATOM     47  C   UNL     1     -17.984 -17.280  -8.092  0.00  0.00    +0.000 C 
BRANCH  44  48
ATOM     48  O   UNL     1     -18.676 -18.433 -12.053  0.00  0.00    +0.000 OA
ATOM     49  H   UNL     1     -19.115 -17.844 -12.703  0.00  0.00    +0.000 HD
ENDBRANCH  44  48
BRANCH  45  50
ATOM     50  O   UNL     1     -20.379 -16.713  -7.893  0.00  0.00    +0.000 OA
ATOM     51  H   UNL     1     -21.020 -17.323  -8.309  0.00  0.00    +0.000 HD
ENDBRANCH  45  50
BRANCH  43  52
ATOM     52  O   UNL     1     -20.648 -16.867 -10.738  0.00  0.00    +0.000 OA
ATOM     53  H   UNL     1     -20.735 -17.382 -11.566  0.00  0.00    +0.000 HD
ENDBRANCH  43  52
BRANCH  46  54
ATOM     54  C   UNL     1     -15.890 -18.176 -11.025  0.00  0.00    +0.000 C 
BRANCH  54  55
ATOM     55  O   UNL     1     -15.870 -19.381 -11.794  0.00  0.00    +0.000 OA
ATOM     56  H   UNL     1     -16.657 -19.364 -12.364  0.00  0.00    +0.000 HD
ENDBRANCH  54  55
ENDBRANCH  46  54
ENDBRANCH  41  47
ENDBRANCH   3  41
TORSDOF 17
ENDMDL
MODEL 7
REMARK VINA RESULT:      -5.6     16.408     21.330
REMARK  Name = 
REMARK  21 active torsions:
REMARK  status: ('A' for Active; 'I' for Inactive)
REMARK    1  A    between atoms: O_3  and  C_22
REMARK    2  A    between atoms: O_3  and  C_28
REMARK    3  A    between atoms: O_4  and  C_25
REMARK    4  A    between atoms: O_4  and  C_30
REMARK    5  A    between atoms: O_5  and  C_16
REMARK    6  A    between atoms: O_6  and  C_17
REMARK    7  A    between atoms: O_7  and  C_18
REMARK    8  A    between atoms: O_8  and  C_20
REMARK    9  A    between atoms: O_9  and  C_21
REMARK   10  A    between atoms: O_10  and  C_23
REMARK   11  A    between atoms: O_11  and  C_26
REMARK   12  A    between atoms: O_13  and  C_36
REMARK   13  A    between atoms: O_15  and  C_45
REMARK   14  A    between atoms: O_15  and  C_48
REMARK   15  A    between atoms: C_19  and  C_26
REMARK   16  A    between atoms: C_24  and  C_27
REMARK   17  A    between atoms: C_29  and  C_37
REMARK   18  A    between atoms: C_35  and  C_38
REMARK   19  A    between atoms: C_37  and  C_39
REMARK   20  A    between atoms: C_42  and  C_46
REMARK   21  A    between atoms: C_42  and  C_47
REMARK                            x       y       z     vdW  Elec       q    Type
REMARK                         _______ _______ _______ _____ _____    ______ ____
ROOT
ATOM      1  O   UNL     1      -2.990 -15.878 -15.708  0.00  0.00    +0.000 OA
ATOM      2  O   UNL     1      -5.532 -19.008 -16.184  0.00  0.00    +0.000 OA
ATOM      3  C   UNL     1      -0.544 -18.576 -16.053  0.00  0.00    +0.000 A 
ATOM      4  C   UNL     1      -1.081 -17.288 -15.881  0.00  0.00    +0.000 A 
ATOM      5  C   UNL     1      -5.270 -16.674 -15.811  0.00  0.00    +0.000 A 
ATOM      6  C   UNL     1      -2.484 -17.144 -15.876  0.00  0.00    +0.000 A 
ATOM      7  C   UNL     1      -3.314 -18.252 -16.048  0.00  0.00    +0.000 A 
ATOM      8  C   UNL     1      -4.770 -18.056 -16.025  0.00  0.00    +0.000 A 
ATOM      9  C   UNL     1      -1.376 -19.680 -16.266  0.00  0.00    +0.000 A 
ATOM     10  C   UNL     1      -4.359 -15.700 -15.638  0.00  0.00    +0.000 A 
ATOM     11  C   UNL     1      -2.757 -19.517 -16.248  0.00  0.00    +0.000 A 
ENDROOT
BRANCH  10  12
ATOM     12  C   UNL     1      -4.743 -14.301 -15.396  0.00  0.00    +0.000 A 
ATOM     13  C   UNL     1      -5.058 -13.878 -14.100  0.00  0.00    +0.000 A 
ATOM     14  C   UNL     1      -4.813 -13.376 -16.446  0.00  0.00    +0.000 A 
ATOM     15  C   UNL     1      -5.420 -12.550 -13.861  0.00  0.00    +0.000 A 
ATOM     16  C   UNL     1      -5.172 -12.046 -16.203  0.00  0.00    +0.000 A 
ATOM     17  C   UNL     1      -5.472 -11.625 -14.907  0.00  0.00    +0.000 A 
BRANCH  17  18
ATOM     18  O   UNL     1      -5.833 -10.361 -14.535  0.00  0.00    +0.000 OA
ATOM     19  C   UNL     1      -5.589  -9.996 -13.182  0.00  0.00    +0.000 C 
ENDBRANCH  17  18
ENDBRANCH  10  12
BRANCH  11  20
ATOM     20  O   UNL     1      -3.506 -20.645 -16.444  0.00  0.00    +0.000 OA
ATOM     21  H   UNL     1      -2.989 -21.266 -17.005  0.00  0.00    +0.000 HD
ENDBRANCH  11  20
BRANCH   4  22
ATOM     22  C   UNL     1      -0.188 -16.082 -15.664  0.00  0.00    +0.000 C 
BRANCH  22  23
ATOM     23  C   UNL     1       0.309 -15.983 -14.245  0.00  0.00    +0.000 C 
ATOM     24  C   UNL     1       1.580 -15.986 -13.796  0.00  0.00    +0.000 C 
ATOM     25  C   UNL     1       2.811 -16.086 -14.652  0.00  0.00    +0.000 C 
ATOM     26  C   UNL     1       1.864 -15.875 -12.321  0.00  0.00    +0.000 C 
ENDBRANCH  22  23
ENDBRANCH   4  22
BRANCH   5  27
ATOM     27  O   UNL     1      -6.633 -16.454 -15.719  0.00  0.00    +0.000 OA
BRANCH  27  33
ATOM     28  O   UNL     1      -7.678 -14.964 -17.236  0.00  0.00    +0.000 OA
ATOM     29  C   UNL     1      -9.572 -16.858 -16.167  0.00  0.00    +0.000 C 
ATOM     30  C   UNL     1      -9.948 -15.393 -16.419  0.00  0.00    +0.000 C 
ATOM     31  C   UNL     1      -8.440 -17.304 -17.092  0.00  0.00    +0.000 C 
ATOM     32  C   UNL     1      -8.694 -14.514 -16.330  0.00  0.00    +0.000 C 
ATOM     33  C   UNL     1      -7.258 -16.316 -17.001  0.00  0.00    +0.000 C 
ATOM     34  C   UNL     1      -9.005 -13.061 -16.678  0.00  0.00    +0.000 C 
BRANCH  29  35
ATOM     35  O   UNL     1     -10.741 -17.670 -16.387  0.00  0.00    +0.000 OA
ATOM     36  H   UNL     1     -10.582 -18.109 -17.249  0.00  0.00    +0.000 HD
ENDBRANCH  29  35
BRANCH  30  37
ATOM     37  O   UNL     1     -10.929 -14.995 -15.454  0.00  0.00    +0.000 OA
ATOM     38  H   UNL     1     -11.694 -14.682 -15.980  0.00  0.00    +0.000 HD
ENDBRANCH  30  37
BRANCH  31  39
ATOM     39  O   UNL     1      -8.979 -17.390 -18.428  0.00  0.00    +0.000 OA
ATOM     40  H   UNL     1      -8.222 -17.424 -19.042  0.00  0.00    +0.000 HD
ENDBRANCH  31  39
ENDBRANCH  27  33
ENDBRANCH   5  27
BRANCH   3  41
ATOM     41  O   UNL     1       0.818 -18.731 -16.114  0.00  0.00    +0.000 OA
BRANCH  41  47
ATOM     42  O   UNL     1       1.015 -19.302 -13.826  0.00  0.00    +0.000 OA
ATOM     43  C   UNL     1       3.444 -20.714 -14.336  0.00  0.00    +0.000 C 
ATOM     44  C   UNL     1       3.015 -20.337 -12.916  0.00  0.00    +0.000 C 
ATOM     45  C   UNL     1       2.832 -19.765 -15.364  0.00  0.00    +0.000 C 
ATOM     46  C   UNL     1       1.484 -20.250 -12.851  0.00  0.00    +0.000 C 
ATOM     47  C   UNL     1       1.306 -19.702 -15.164  0.00  0.00    +0.000 C 
BRANCH  44  48
ATOM     48  O   UNL     1       3.522 -21.311 -12.001  0.00  0.00    +0.000 OA
ATOM     49  H   UNL     1       2.848 -22.021 -11.984  0.00  0.00    +0.000 HD
ENDBRANCH  44  48
BRANCH  45  50
ATOM     50  O   UNL     1       3.185 -20.226 -16.678  0.00  0.00    +0.000 OA
ATOM     51  H   UNL     1       2.339 -20.374 -17.147  0.00  0.00    +0.000 HD
ENDBRANCH  45  50
BRANCH  43  52
ATOM     52  O   UNL     1       4.878 -20.677 -14.415  0.00  0.00    +0.000 OA
ATOM     53  H   UNL     1       5.129 -19.793 -14.079  0.00  0.00    +0.000 HD
ENDBRANCH  43  52
BRANCH  46  54
ATOM     54  C   UNL     1       1.013 -19.793 -11.464  0.00  0.00    +0.000 C 
BRANCH  54  55
ATOM     55  O   UNL     1       2.116 -19.248 -10.735  0.00  0.00    +0.000 OA
ATOM     56  H   UNL     1       1.768 -18.510 -10.206  0.00  0.00    +0.000 HD
ENDBRANCH  54  55
ENDBRANCH  46  54
ENDBRANCH  41  47
ENDBRANCH   3  41
TORSDOF 17
ENDMDL
MODEL 8
REMARK VINA RESULT:      -5.6      4.278     11.893
REMARK  Name = 
REMARK  21 active torsions:
REMARK  status: ('A' for Active; 'I' for Inactive)
REMARK    1  A    between atoms: O_3  and  C_22
REMARK    2  A    between atoms: O_3  and  C_28
REMARK    3  A    between atoms: O_4  and  C_25
REMARK    4  A    between atoms: O_4  and  C_30
REMARK    5  A    between atoms: O_5  and  C_16
REMARK    6  A    between atoms: O_6  and  C_17
REMARK    7  A    between atoms: O_7  and  C_18
REMARK    8  A    between atoms: O_8  and  C_20
REMARK    9  A    between atoms: O_9  and  C_21
REMARK   10  A    between atoms: O_10  and  C_23
REMARK   11  A    between atoms: O_11  and  C_26
REMARK   12  A    between atoms: O_13  and  C_36
REMARK   13  A    between atoms: O_15  and  C_45
REMARK   14  A    between atoms: O_15  and  C_48
REMARK   15  A    between atoms: C_19  and  C_26
REMARK   16  A    between atoms: C_24  and  C_27
REMARK   17  A    between atoms: C_29  and  C_37
REMARK   18  A    between atoms: C_35  and  C_38
REMARK   19  A    between atoms: C_37  and  C_39
REMARK   20  A    between atoms: C_42  and  C_46
REMARK   21  A    between atoms: C_42  and  C_47
REMARK                            x       y       z     vdW  Elec       q    Type
REMARK                         _______ _______ _______ _____ _____    ______ ____
ROOT
ATOM      1  O   UNL     1      -5.463 -36.714  -1.277  0.00  0.00    +0.000 OA
ATOM      2  O   UNL     1      -1.707 -38.077  -1.995  0.00  0.00    +0.000 OA
ATOM      3  C   UNL     1      -4.792 -34.965  -4.420  0.00  0.00    +0.000 A 
ATOM      4  C   UNL     1      -5.462 -35.404  -3.264  0.00  0.00    +0.000 A 
ATOM      5  C   UNL     1      -3.592 -38.059  -0.546  0.00  0.00    +0.000 A 
ATOM      6  C   UNL     1      -4.793 -36.296  -2.401  0.00  0.00    +0.000 A 
ATOM      7  C   UNL     1      -3.502 -36.738  -2.696  0.00  0.00    +0.000 A 
ATOM      8  C   UNL     1      -2.840 -37.658  -1.762  0.00  0.00    +0.000 A 
ATOM      9  C   UNL     1      -3.516 -35.441  -4.735  0.00  0.00    +0.000 A 
ATOM     10  C   UNL     1      -4.821 -37.541  -0.375  0.00  0.00    +0.000 A 
ATOM     11  C   UNL     1      -2.869 -36.313  -3.866  0.00  0.00    +0.000 A 
ENDROOT
BRANCH  10  12
ATOM     12  C   UNL     1      -5.646 -37.852   0.803  0.00  0.00    +0.000 A 
ATOM     13  C   UNL     1      -5.504 -37.097   1.972  0.00  0.00    +0.000 A 
ATOM     14  C   UNL     1      -6.569 -38.905   0.785  0.00  0.00    +0.000 A 
ATOM     15  C   UNL     1      -6.286 -37.383   3.094  0.00  0.00    +0.000 A 
ATOM     16  C   UNL     1      -7.354 -39.187   1.909  0.00  0.00    +0.000 A 
ATOM     17  C   UNL     1      -7.218 -38.422   3.068  0.00  0.00    +0.000 A 
BRANCH  17  18
ATOM     18  O   UNL     1      -7.921 -38.590   4.229  0.00  0.00    +0.000 OA
ATOM     19  C   UNL     1      -7.308 -38.120   5.423  0.00  0.00    +0.000 C 
ENDBRANCH  17  18
ENDBRANCH  10  12
BRANCH  11  20
ATOM     20  O   UNL     1      -1.615 -36.719  -4.232  0.00  0.00    +0.000 OA
ATOM     21  H   UNL     1      -0.960 -36.126  -3.801  0.00  0.00    +0.000 HD
ENDBRANCH  11  20
BRANCH   4  22
ATOM     22  C   UNL     1      -6.853 -34.907  -2.919  0.00  0.00    +0.000 C 
BRANCH  22  23
ATOM     23  C   UNL     1      -6.835 -33.849  -1.847  0.00  0.00    +0.000 C 
ATOM     24  C   UNL     1      -7.326 -32.595  -1.892  0.00  0.00    +0.000 C 
ATOM     25  C   UNL     1      -8.026 -31.970  -3.067  0.00  0.00    +0.000 C 
ATOM     26  C   UNL     1      -7.205 -31.687  -0.696  0.00  0.00    +0.000 C 
ENDBRANCH  22  23
ENDBRANCH   4  22
BRANCH   5  27
ATOM     27  O   UNL     1      -2.981 -38.873   0.390  0.00  0.00    +0.000 OA
BRANCH  27  33
ATOM     28  O   UNL     1      -3.804 -41.005   1.018  0.00  0.00    +0.000 OA
ATOM     29  C   UNL     1      -0.931 -40.890   1.247  0.00  0.00    +0.000 C 
ATOM     30  C   UNL     1      -1.794 -41.645   2.265  0.00  0.00    +0.000 C 
ATOM     31  C   UNL     1      -1.623 -40.816  -0.115  0.00  0.00    +0.000 C 
ATOM     32  C   UNL     1      -3.196 -41.025   2.317  0.00  0.00    +0.000 C 
ATOM     33  C   UNL     1      -3.054 -40.262   0.045  0.00  0.00    +0.000 C 
ATOM     34  C   UNL     1      -4.121 -41.812   3.241  0.00  0.00    +0.000 C 
BRANCH  29  35
ATOM     35  O   UNL     1       0.329 -41.575   1.126  0.00  0.00    +0.000 OA
ATOM     36  H   UNL     1       1.002 -40.862   1.116  0.00  0.00    +0.000 HD
ENDBRANCH  29  35
BRANCH  30  37
ATOM     37  O   UNL     1      -1.155 -41.587   3.546  0.00  0.00    +0.000 OA
ATOM     38  H   UNL     1      -1.101 -40.634   3.763  0.00  0.00    +0.000 HD
ENDBRANCH  30  37
BRANCH  31  39
ATOM     39  O   UNL     1      -1.609 -42.143  -0.681  0.00  0.00    +0.000 OA
ATOM     40  H   UNL     1      -0.736 -42.270  -1.096  0.00  0.00    +0.000 HD
ENDBRANCH  31  39
ENDBRANCH  27  33
ENDBRANCH   5  27
BRANCH   3  41
ATOM     41  O   UNL     1      -5.445 -34.140  -5.299  0.00  0.00    +0.000 OA
BRANCH  41  47
ATOM     42  O   UNL     1      -4.176 -33.069  -6.985  0.00  0.00    +0.000 OA
ATOM     43  C   UNL     1      -5.682 -34.385  -9.024  0.00  0.00    +0.000 C 
ATOM     44  C   UNL     1      -4.781 -33.187  -9.335  0.00  0.00    +0.000 C 
ATOM     45  C   UNL     1      -6.144 -34.360  -7.568  0.00  0.00    +0.000 C 
ATOM     46  C   UNL     1      -3.634 -33.133  -8.316  0.00  0.00    +0.000 C 
ATOM     47  C   UNL     1      -4.921 -34.236  -6.640  0.00  0.00    +0.000 C 
BRANCH  44  48
ATOM     48  O   UNL     1      -4.288 -33.308 -10.670  0.00  0.00    +0.000 OA
ATOM     49  H   UNL     1      -3.550 -33.950 -10.614  0.00  0.00    +0.000 HD
ENDBRANCH  44  48
BRANCH  45  50
ATOM     50  O   UNL     1      -6.899 -35.556  -7.309  0.00  0.00    +0.000 OA
ATOM     51  H   UNL     1      -6.635 -36.194  -8.001  0.00  0.00    +0.000 HD
ENDBRANCH  45  50
BRANCH  43  52
ATOM     52  O   UNL     1      -6.815 -34.358  -9.908  0.00  0.00    +0.000 OA
ATOM     53  H   UNL     1      -6.824 -35.238 -10.337  0.00  0.00    +0.000 HD
ENDBRANCH  43  52
BRANCH  46  54
ATOM     54  C   UNL     1      -2.752 -31.897  -8.540  0.00  0.00    +0.000 C 
BRANCH  54  55
ATOM     55  O   UNL     1      -1.800 -32.165  -9.573  0.00  0.00    +0.000 OA
ATOM     56  H   UNL     1      -2.291 -32.552 -10.316  0.00  0.00    +0.000 HD
ENDBRANCH  54  55
ENDBRANCH  46  54
ENDBRANCH  41  47
ENDBRANCH   3  41
TORSDOF 17
ENDMDL
MODEL 9
REMARK VINA RESULT:      -5.5     17.042     21.721
REMARK  Name = 
REMARK  21 active torsions:
REMARK  status: ('A' for Active; 'I' for Inactive)
REMARK    1  A    between atoms: O_3  and  C_22
REMARK    2  A    between atoms: O_3  and  C_28
REMARK    3  A    between atoms: O_4  and  C_25
REMARK    4  A    between atoms: O_4  and  C_30
REMARK    5  A    between atoms: O_5  and  C_16
REMARK    6  A    between atoms: O_6  and  C_17
REMARK    7  A    between atoms: O_7  and  C_18
REMARK    8  A    between atoms: O_8  and  C_20
REMARK    9  A    between atoms: O_9  and  C_21
REMARK   10  A    between atoms: O_10  and  C_23
REMARK   11  A    between atoms: O_11  and  C_26
REMARK   12  A    between atoms: O_13  and  C_36
REMARK   13  A    between atoms: O_15  and  C_45
REMARK   14  A    between atoms: O_15  and  C_48
REMARK   15  A    between atoms: C_19  and  C_26
REMARK   16  A    between atoms: C_24  and  C_27
REMARK   17  A    between atoms: C_29  and  C_37
REMARK   18  A    between atoms: C_35  and  C_38
REMARK   19  A    between atoms: C_37  and  C_39
REMARK   20  A    between atoms: C_42  and  C_46
REMARK   21  A    between atoms: C_42  and  C_47
REMARK                            x       y       z     vdW  Elec       q    Type
REMARK                         _______ _______ _______ _____ _____    ______ ____
ROOT
ATOM      1  O   UNL     1      -4.486 -16.620 -15.970  0.00  0.00    +0.000 OA
ATOM      2  O   UNL     1      -3.417 -12.704 -15.901  0.00  0.00    +0.000 OA
ATOM      3  C   UNL     1      -0.864 -17.005 -15.627  0.00  0.00    +0.000 A 
ATOM      4  C   UNL     1      -2.226 -17.332 -15.751  0.00  0.00    +0.000 A 
ATOM      5  C   UNL     1      -5.166 -14.304 -16.093  0.00  0.00    +0.000 A 
ATOM      6  C   UNL     1      -3.160 -16.281 -15.851  0.00  0.00    +0.000 A 
ATOM      7  C   UNL     1      -2.741 -14.950 -15.818  0.00  0.00    +0.000 A 
ATOM      8  C   UNL     1      -3.749 -13.888 -15.937  0.00  0.00    +0.000 A 
ATOM      9  C   UNL     1      -0.449 -15.671 -15.553  0.00  0.00    +0.000 A 
ATOM     10  C   UNL     1      -5.429 -15.622 -16.130  0.00  0.00    +0.000 A 
ATOM     11  C   UNL     1      -1.386 -14.649 -15.663  0.00  0.00    +0.000 A 
ENDROOT
BRANCH  10  12
ATOM     12  C   UNL     1      -6.792 -16.145 -16.304  0.00  0.00    +0.000 A 
ATOM     13  C   UNL     1      -7.506 -16.615 -15.196  0.00  0.00    +0.000 A 
ATOM     14  C   UNL     1      -7.394 -16.195 -17.568  0.00  0.00    +0.000 A 
ATOM     15  C   UNL     1      -8.803 -17.109 -15.352  0.00  0.00    +0.000 A 
ATOM     16  C   UNL     1      -8.695 -16.687 -17.721  0.00  0.00    +0.000 A 
ATOM     17  C   UNL     1      -9.408 -17.142 -16.611  0.00  0.00    +0.000 A 
BRANCH  17  18
ATOM     18  O   UNL     1     -10.680 -17.643 -16.621  0.00  0.00    +0.000 OA
ATOM     19  C   UNL     1     -11.740 -16.700 -16.720  0.00  0.00    +0.000 C 
ENDBRANCH  17  18
ENDBRANCH  10  12
BRANCH  11  20
ATOM     20  O   UNL     1      -0.903 -13.371 -15.601  0.00  0.00    +0.000 OA
ATOM     21  H   UNL     1      -0.880 -13.005 -16.513  0.00  0.00    +0.000 HD
ENDBRANCH  11  20
BRANCH   4  22
ATOM     22  C   UNL     1      -2.690 -18.775 -15.817  0.00  0.00    +0.000 C 
BRANCH  22  23
ATOM     23  C   UNL     1      -3.155 -19.165 -17.196  0.00  0.00    +0.000 C 
ATOM     24  C   UNL     1      -4.357 -19.643 -17.575  0.00  0.00    +0.000 C 
ATOM     25  C   UNL     1      -5.528 -19.891 -16.665  0.00  0.00    +0.000 C 
ATOM     26  C   UNL     1      -4.622 -19.973 -19.021  0.00  0.00    +0.000 C 
ENDBRANCH  22  23
ENDBRANCH   4  22
BRANCH   5  27
ATOM     27  O   UNL     1      -6.139 -13.337 -16.272  0.00  0.00    +0.000 OA
BRANCH  27  33
ATOM     28  O   UNL     1      -7.844 -13.350 -14.627  0.00  0.00    +0.000 OA
ATOM     29  C   UNL     1      -7.851 -10.879 -16.113  0.00  0.00    +0.000 C 
ATOM     30  C   UNL     1      -9.152 -11.558 -15.668  0.00  0.00    +0.000 C 
ATOM     31  C   UNL     1      -6.693 -11.243 -15.185  0.00  0.00    +0.000 C 
ATOM     32  C   UNL     1      -8.925 -13.069 -15.526  0.00  0.00    +0.000 C 
ATOM     33  C   UNL     1      -6.593 -12.776 -15.034  0.00  0.00    +0.000 C 
ATOM     34  C   UNL     1     -10.165 -13.772 -14.984  0.00  0.00    +0.000 C 
BRANCH  29  35
ATOM     35  O   UNL     1      -8.061  -9.454 -16.108  0.00  0.00    +0.000 OA
ATOM     36  H   UNL     1      -8.838  -9.317 -15.527  0.00  0.00    +0.000 HD
ENDBRANCH  29  35
BRANCH  30  37
ATOM     37  O   UNL     1     -10.174 -11.276 -16.631  0.00  0.00    +0.000 OA
ATOM     38  H   UNL     1     -10.991 -11.666 -16.260  0.00  0.00    +0.000 HD
ENDBRANCH  30  37
BRANCH  31  39
ATOM     39  O   UNL     1      -6.923 -10.583 -13.922  0.00  0.00    +0.000 OA
ATOM     40  H   UNL     1      -6.347 -11.013 -13.264  0.00  0.00    +0.000 HD
ENDBRANCH  31  39
ENDBRANCH  27  33
ENDBRANCH   5  27
BRANCH   3  41
ATOM     41  O   UNL     1       0.055 -18.011 -15.475  0.00  0.00    +0.000 OA
BRANCH  41  47
ATOM     42  O   UNL     1       1.399 -17.502 -13.595  0.00  0.00    +0.000 OA
ATOM     43  C   UNL     1       1.119 -20.168 -12.611  0.00  0.00    +0.000 C 
ATOM     44  C   UNL     1       2.181 -19.213 -12.059  0.00  0.00    +0.000 C 
ATOM     45  C   UNL     1       0.731 -19.791 -14.039  0.00  0.00    +0.000 C 
ATOM     46  C   UNL     1       1.695 -17.765 -12.212  0.00  0.00    +0.000 C 
ATOM     47  C   UNL     1       0.328 -18.305 -14.089  0.00  0.00    +0.000 C 
BRANCH  44  48
ATOM     48  O   UNL     1       2.434 -19.537 -10.691  0.00  0.00    +0.000 OA
ATOM     49  H   UNL     1       1.823 -20.275 -10.485  0.00  0.00    +0.000 HD
ENDBRANCH  44  48
BRANCH  45  50
ATOM     50  O   UNL     1      -0.336 -20.654 -14.465  0.00  0.00    +0.000 OA
ATOM     51  H   UNL     1      -0.708 -20.242 -15.270  0.00  0.00    +0.000 HD
ENDBRANCH  45  50
BRANCH  43  52
ATOM     52  O   UNL     1       1.632 -21.510 -12.571  0.00  0.00    +0.000 OA
ATOM     53  H   UNL     1       2.295 -21.508 -11.851  0.00  0.00    +0.000 HD
ENDBRANCH  43  52
BRANCH  46  54
ATOM     54  C   UNL     1       2.766 -16.770 -11.747  0.00  0.00    +0.000 C 
BRANCH  54  55
ATOM     55  O   UNL     1       2.745 -16.669 -10.321  0.00  0.00    +0.000 OA
ATOM     56  H   UNL     1       2.020 -17.236 -10.009  0.00  0.00    +0.000 HD
ENDBRANCH  54  55
ENDBRANCH  46  54
ENDBRANCH  41  47
ENDBRANCH   3  41
TORSDOF 17
ENDMDL
