MODEL 1
REMARK VINA RESULT:      -5.7      0.000      0.000
REMARK  Name = 
REMARK  9 active torsions:
REMARK  status: ('A' for Active; 'I' for Inactive)
REMARK    1  A    between atoms: O_1  and  N_7
REMARK    2  A    between atoms: O_1  and  C_20
REMARK    3  A    between atoms: O_2  and  C_14
REMARK    4  A    between atoms: O_3  and  C_18
REMARK    5  A    between atoms: O_4  and  C_25
REMARK    6  A    between atoms: C_8  and  C_10
REMARK    7  A    between atoms: C_17  and  C_18
REMARK    8  A    between atoms: C_17  and  C_20
REMARK    9  A    between atoms: C_18  and  C_25
REMARK                            x       y       z     vdW  Elec       q    Type
REMARK                         _______ _______ _______ _____ _____    ______ ____
ROOT
ATOM      1  N   UNL     1      -6.428 -32.956  -5.320  0.00  0.00    +0.000 NA
ATOM      2  N   UNL     1      -5.130 -35.227  -2.925  0.00  0.00    +0.000 NA
ATOM      3  C   UNL     1      -6.503 -33.588  -4.175  0.00  0.00    +0.000 C 
ATOM      4  C   UNL     1      -5.252 -34.408  -3.921  0.00  0.00    +0.000 C 
ATOM      5  C   UNL     1      -4.387 -34.097  -5.050  0.00  0.00    +0.000 A 
ATOM      6  C   UNL     1      -5.157 -33.248  -5.844  0.00  0.00    +0.000 A 
ATOM      7  C   UNL     1      -3.107 -34.485  -5.404  0.00  0.00    +0.000 A 
ATOM      8  C   UNL     1      -4.649 -32.758  -7.035  0.00  0.00    +0.000 A 
ATOM      9  C   UNL     1      -2.591 -33.991  -6.605  0.00  0.00    +0.000 A 
ATOM     10  C   UNL     1      -3.357 -33.135  -7.415  0.00  0.00    +0.000 A 
ENDROOT
BRANCH   3  12
ATOM     11  N   UNL     1      -9.766 -33.684  -2.594  0.00  0.00    +0.000 N 
ATOM     12  C   UNL     1      -7.679 -33.469  -3.345  0.00  0.00    +0.000 A 
ATOM     13  C   UNL     1      -7.793 -32.790  -2.085  0.00  0.00    +0.000 A 
ATOM     14  C   UNL     1      -9.111 -32.932  -1.648  0.00  0.00    +0.000 A 
ATOM     15  C   UNL     1      -8.915 -34.033  -3.610  0.00  0.00    +0.000 A 
ATOM     16  C   UNL     1      -6.900 -32.053  -1.278  0.00  0.00    +0.000 A 
ATOM     17  C   UNL     1      -9.580 -32.380  -0.451  0.00  0.00    +0.000 A 
ATOM     18  C   UNL     1      -7.351 -31.494  -0.077  0.00  0.00    +0.000 A 
ATOM     19  C   UNL     1      -8.673 -31.656   0.329  0.00  0.00    +0.000 A 
ATOM     20  H   UNL     1     -10.734 -33.956  -2.520  0.00  0.00    +0.000 HD
BRANCH  15  21
ATOM     21  O   UNL     1      -9.305 -34.817  -4.609  0.00  0.00    +0.000 OA
ATOM     22  H   UNL     1     -10.262 -34.976  -4.564  0.00  0.00    +0.000 HD
ENDBRANCH  15  21
ENDBRANCH   3  12
BRANCH   2  23
ATOM     23  O   UNL     1      -3.904 -35.898  -2.939  0.00  0.00    +0.000 OA
BRANCH  23  24
ATOM     24  C   UNL     1      -4.159 -37.299  -2.972  0.00  0.00    +0.000 C 
BRANCH  24  25
ATOM     25  C   UNL     1      -3.167 -38.015  -2.066  0.00  0.00    +0.000 C 
BRANCH  25  26
ATOM     26  C   UNL     1      -3.250 -37.601  -0.597  0.00  0.00    +0.000 C 
BRANCH  26  27
ATOM     27  O   UNL     1      -2.660 -36.298  -0.472  0.00  0.00    +0.000 OA
ATOM     28  H   UNL     1      -2.634 -35.954  -1.388  0.00  0.00    +0.000 HD
ENDBRANCH  26  27
BRANCH  26  29
ATOM     29  C   UNL     1      -4.679 -37.534  -0.048  0.00  0.00    +0.000 C 
BRANCH  29  30
ATOM     30  O   UNL     1      -5.069 -36.158   0.011  0.00  0.00    +0.000 OA
ATOM     31  H   UNL     1      -4.250 -35.634  -0.050  0.00  0.00    +0.000 HD
ENDBRANCH  29  30
ENDBRANCH  26  29
ENDBRANCH  25  26
ENDBRANCH  24  25
ENDBRANCH  23  24
ENDBRANCH   2  23
TORSDOF 9
ENDMDL
MODEL 2
REMARK VINA RESULT:      -5.6      2.218      4.865
REMARK  Name = 
REMARK  9 active torsions:
REMARK  status: ('A' for Active; 'I' for Inactive)
REMARK    1  A    between atoms: O_1  and  N_7
REMARK    2  A    between atoms: O_1  and  C_20
REMARK    3  A    between atoms: O_2  and  C_14
REMARK    4  A    between atoms: O_3  and  C_18
REMARK    5  A    between atoms: O_4  and  C_25
REMARK    6  A    between atoms: C_8  and  C_10
REMARK    7  A    between atoms: C_17  and  C_18
REMARK    8  A    between atoms: C_17  and  C_20
REMARK    9  A    between atoms: C_18  and  C_25
REMARK                            x       y       z     vdW  Elec       q    Type
REMARK                         _______ _______ _______ _____ _____    ______ ____
ROOT
ATOM      1  N   UNL     1      -5.381 -36.120  -2.634  0.00  0.00    +0.000 NA
ATOM      2  N   UNL     1      -4.217 -33.767  -5.020  0.00  0.00    +0.000 NA
ATOM      3  C   UNL     1      -5.568 -35.085  -3.414  0.00  0.00    +0.000 C 
ATOM      4  C   UNL     1      -4.340 -34.811  -4.263  0.00  0.00    +0.000 C 
ATOM      5  C   UNL     1      -3.427 -35.896  -3.929  0.00  0.00    +0.000 A 
ATOM      6  C   UNL     1      -4.105 -36.618  -2.946  0.00  0.00    +0.000 A 
ATOM      7  C   UNL     1      -2.163 -36.247  -4.369  0.00  0.00    +0.000 A 
ATOM      8  C   UNL     1      -3.516 -37.731  -2.371  0.00  0.00    +0.000 A 
ATOM      9  C   UNL     1      -1.567 -37.371  -3.790  0.00  0.00    +0.000 A 
ATOM     10  C   UNL     1      -2.238 -38.107  -2.798  0.00  0.00    +0.000 A 
ENDROOT
BRANCH   3  12
ATOM     11  N   UNL     1      -8.832 -33.592  -3.934  0.00  0.00    +0.000 N 
ATOM     12  C   UNL     1      -6.812 -34.353  -3.380  0.00  0.00    +0.000 A 
ATOM     13  C   UNL     1      -7.256 -33.431  -2.373  0.00  0.00    +0.000 A 
ATOM     14  C   UNL     1      -8.514 -32.964  -2.754  0.00  0.00    +0.000 A 
ATOM     15  C   UNL     1      -7.830 -34.447  -4.313  0.00  0.00    +0.000 A 
ATOM     16  C   UNL     1      -6.697 -32.936  -1.174  0.00  0.00    +0.000 A 
ATOM     17  C   UNL     1      -9.241 -32.033  -2.002  0.00  0.00    +0.000 A 
ATOM     18  C   UNL     1      -7.409 -32.005  -0.410  0.00  0.00    +0.000 A 
ATOM     19  C   UNL     1      -8.663 -31.561  -0.820  0.00  0.00    +0.000 A 
ATOM     20  H   UNL     1      -9.702 -33.452  -4.426  0.00  0.00    +0.000 HD
BRANCH  15  21
ATOM     21  O   UNL     1      -7.940 -35.216  -5.391  0.00  0.00    +0.000 OA
ATOM     22  H   UNL     1      -7.595 -36.105  -5.211  0.00  0.00    +0.000 HD
ENDBRANCH  15  21
ENDBRANCH   3  12
BRANCH   2  23
ATOM     23  O   UNL     1      -2.976 -33.721  -5.660  0.00  0.00    +0.000 OA
BRANCH  23  24
ATOM     24  C   UNL     1      -3.193 -33.789  -7.067  0.00  0.00    +0.000 C 
BRANCH  24  25
ATOM     25  C   UNL     1      -4.100 -32.644  -7.494  0.00  0.00    +0.000 C 
BRANCH  25  26
ATOM     26  C   UNL     1      -5.112 -33.019  -8.578  0.00  0.00    +0.000 C 
BRANCH  26  27
ATOM     27  O   UNL     1      -4.439 -32.965  -9.845  0.00  0.00    +0.000 OA
ATOM     28  H   UNL     1      -3.749 -32.282  -9.726  0.00  0.00    +0.000 HD
ENDBRANCH  26  27
BRANCH  26  29
ATOM     29  C   UNL     1      -5.712 -34.419  -8.414  0.00  0.00    +0.000 C 
BRANCH  29  30
ATOM     30  O   UNL     1      -7.084 -34.274  -8.031  0.00  0.00    +0.000 OA
ATOM     31  H   UNL     1      -7.083 -33.938  -7.117  0.00  0.00    +0.000 HD
ENDBRANCH  29  30
ENDBRANCH  26  29
ENDBRANCH  25  26
ENDBRANCH  24  25
ENDBRANCH  23  24
ENDBRANCH   2  23
TORSDOF 9
ENDMDL
MODEL 3
REMARK VINA RESULT:      -5.6      1.852      5.825
REMARK  Name = 
REMARK  9 active torsions:
REMARK  status: ('A' for Active; 'I' for Inactive)
REMARK    1  A    between atoms: O_1  and  N_7
REMARK    2  A    between atoms: O_1  and  C_20
REMARK    3  A    between atoms: O_2  and  C_14
REMARK    4  A    between atoms: O_3  and  C_18
REMARK    5  A    between atoms: O_4  and  C_25
REMARK    6  A    between atoms: C_8  and  C_10
REMARK    7  A    between atoms: C_17  and  C_18
REMARK    8  A    between atoms: C_17  and  C_20
REMARK    9  A    between atoms: C_18  and  C_25
REMARK                            x       y       z     vdW  Elec       q    Type
REMARK                         _______ _______ _______ _____ _____    ______ ____
ROOT
ATOM      1  N   UNL     1      -6.535 -32.644  -4.610  0.00  0.00    +0.000 NA
ATOM      2  N   UNL     1      -4.937 -35.412  -3.071  0.00  0.00    +0.000 NA
ATOM      3  C   UNL     1      -5.623 -33.583  -4.596  0.00  0.00    +0.000 C 
ATOM      4  C   UNL     1      -5.788 -34.488  -3.389  0.00  0.00    +0.000 C 
ATOM      5  C   UNL     1      -6.992 -33.993  -2.735  0.00  0.00    +0.000 A 
ATOM      6  C   UNL     1      -7.366 -32.891  -3.504  0.00  0.00    +0.000 A 
ATOM      7  C   UNL     1      -7.699 -34.390  -1.614  0.00  0.00    +0.000 A 
ATOM      8  C   UNL     1      -8.481 -32.148  -3.158  0.00  0.00    +0.000 A 
ATOM      9  C   UNL     1      -8.825 -33.643  -1.263  0.00  0.00    +0.000 A 
ATOM     10  C   UNL     1      -9.214 -32.529  -2.028  0.00  0.00    +0.000 A 
ENDROOT
BRANCH   3  12
ATOM     11  N   UNL     1      -2.644 -33.678  -6.663  0.00  0.00    +0.000 N 
ATOM     12  C   UNL     1      -4.619 -33.650  -5.633  0.00  0.00    +0.000 A 
ATOM     13  C   UNL     1      -4.830 -33.828  -7.042  0.00  0.00    +0.000 A 
ATOM     14  C   UNL     1      -3.579 -33.828  -7.658  0.00  0.00    +0.000 A 
ATOM     15  C   UNL     1      -3.251 -33.591  -5.437  0.00  0.00    +0.000 A 
ATOM     16  C   UNL     1      -5.973 -33.976  -7.857  0.00  0.00    +0.000 A 
ATOM     17  C   UNL     1      -3.410 -33.970  -9.041  0.00  0.00    +0.000 A 
ATOM     18  C   UNL     1      -5.825 -34.119  -9.241  0.00  0.00    +0.000 A 
ATOM     19  C   UNL     1      -4.560 -34.115  -9.822  0.00  0.00    +0.000 A 
ATOM     20  H   UNL     1      -1.648 -33.664  -6.827  0.00  0.00    +0.000 HD
BRANCH  15  21
ATOM     21  O   UNL     1      -2.546 -33.506  -4.314  0.00  0.00    +0.000 OA
ATOM     22  H   UNL     1      -3.123 -33.288  -3.565  0.00  0.00    +0.000 HD
ENDBRANCH  15  21
ENDBRANCH   3  12
BRANCH   2  23
ATOM     23  O   UNL     1      -5.291 -36.073  -1.892  0.00  0.00    +0.000 OA
BRANCH  23  24
ATOM     24  C   UNL     1      -4.666 -37.354  -1.890  0.00  0.00    +0.000 C 
BRANCH  24  25
ATOM     25  C   UNL     1      -3.190 -37.197  -2.226  0.00  0.00    +0.000 C 
BRANCH  25  26
ATOM     26  C   UNL     1      -2.294 -36.956  -1.010  0.00  0.00    +0.000 C 
BRANCH  26  27
ATOM     27  O   UNL     1      -3.119 -36.451   0.051  0.00  0.00    +0.000 OA
ATOM     28  H   UNL     1      -3.791 -37.148   0.190  0.00  0.00    +0.000 HD
ENDBRANCH  26  27
BRANCH  26  29
ATOM     29  C   UNL     1      -1.579 -38.212  -0.504  0.00  0.00    +0.000 C 
BRANCH  29  30
ATOM     30  O   UNL     1      -0.259 -38.228  -1.059  0.00  0.00    +0.000 OA
ATOM     31  H   UNL     1       0.015 -37.297  -1.148  0.00  0.00    +0.000 HD
ENDBRANCH  29  30
ENDBRANCH  26  29
ENDBRANCH  25  26
ENDBRANCH  24  25
ENDBRANCH  23  24
ENDBRANCH   2  23
TORSDOF 9
ENDMDL
MODEL 4
REMARK VINA RESULT:      -5.2      3.124      7.156
REMARK  Name = 
REMARK  9 active torsions:
REMARK  status: ('A' for Active; 'I' for Inactive)
REMARK    1  A    between atoms: O_1  and  N_7
REMARK    2  A    between atoms: O_1  and  C_20
REMARK    3  A    between atoms: O_2  and  C_14
REMARK    4  A    between atoms: O_3  and  C_18
REMARK    5  A    between atoms: O_4  and  C_25
REMARK    6  A    between atoms: C_8  and  C_10
REMARK    7  A    between atoms: C_17  and  C_18
REMARK    8  A    between atoms: C_17  and  C_20
REMARK    9  A    between atoms: C_18  and  C_25
REMARK                            x       y       z     vdW  Elec       q    Type
REMARK                         _______ _______ _______ _____ _____    ______ ____
ROOT
ATOM      1  N   UNL     1      -6.328 -32.497  -4.680  0.00  0.00    +0.000 NA
ATOM      2  N   UNL     1      -6.598 -35.993  -5.218  0.00  0.00    +0.000 NA
ATOM      3  C   UNL     1      -5.985 -33.594  -5.308  0.00  0.00    +0.000 C 
ATOM      4  C   UNL     1      -6.825 -34.772  -4.850  0.00  0.00    +0.000 C 
ATOM      5  C   UNL     1      -7.778 -34.188  -3.917  0.00  0.00    +0.000 A 
ATOM      6  C   UNL     1      -7.411 -32.843  -3.854  0.00  0.00    +0.000 A 
ATOM      7  C   UNL     1      -8.828 -34.705  -3.179  0.00  0.00    +0.000 A 
ATOM      8  C   UNL     1      -8.103 -31.972  -3.032  0.00  0.00    +0.000 A 
ATOM      9  C   UNL     1      -9.528 -33.827  -2.349  0.00  0.00    +0.000 A 
ATOM     10  C   UNL     1      -9.168 -32.470  -2.274  0.00  0.00    +0.000 A 
ENDROOT
BRANCH   3  12
ATOM     11  N   UNL     1      -2.886 -33.427  -7.186  0.00  0.00    +0.000 N 
ATOM     12  C   UNL     1      -4.916 -33.582  -6.279  0.00  0.00    +0.000 A 
ATOM     13  C   UNL     1      -5.016 -33.819  -7.692  0.00  0.00    +0.000 A 
ATOM     14  C   UNL     1      -3.735 -33.703  -8.231  0.00  0.00    +0.000 A 
ATOM     15  C   UNL     1      -3.576 -33.373  -6.002  0.00  0.00    +0.000 A 
ATOM     16  C   UNL     1      -6.083 -34.109  -8.569  0.00  0.00    +0.000 A 
ATOM     17  C   UNL     1      -3.465 -33.862  -9.595  0.00  0.00    +0.000 A 
ATOM     18  C   UNL     1      -5.833 -34.272  -9.936  0.00  0.00    +0.000 A 
ATOM     19  C   UNL     1      -4.541 -34.149 -10.440  0.00  0.00    +0.000 A 
ATOM     20  H   UNL     1      -1.889 -33.312  -7.289  0.00  0.00    +0.000 HD
BRANCH  15  21
ATOM     21  O   UNL     1      -2.958 -33.184  -4.842  0.00  0.00    +0.000 OA
ATOM     22  H   UNL     1      -2.505 -33.995  -4.561  0.00  0.00    +0.000 HD
ENDBRANCH  15  21
ENDBRANCH   3  12
BRANCH   2  23
ATOM     23  O   UNL     1      -7.480 -36.898  -4.622  0.00  0.00    +0.000 OA
BRANCH  23  24
ATOM     24  C   UNL     1      -8.211 -37.557  -5.652  0.00  0.00    +0.000 C 
BRANCH  24  25
ATOM     25  C   UNL     1      -9.670 -37.681  -5.237  0.00  0.00    +0.000 C 
BRANCH  25  26
ATOM     26  C   UNL     1     -10.665 -37.239  -6.309  0.00  0.00    +0.000 C 
BRANCH  26  27
ATOM     27  O   UNL     1     -11.977 -37.254  -5.726  0.00  0.00    +0.000 OA
ATOM     28  H   UNL     1     -11.831 -37.002  -4.792  0.00  0.00    +0.000 HD
ENDBRANCH  26  27
BRANCH  26  29
ATOM     29  C   UNL     1     -10.403 -35.834  -6.862  0.00  0.00    +0.000 C 
BRANCH  29  30
ATOM     30  O   UNL     1     -11.002 -34.886  -5.972  0.00  0.00    +0.000 OA
ATOM     31  H   UNL     1     -11.950 -35.106  -5.929  0.00  0.00    +0.000 HD
ENDBRANCH  29  30
ENDBRANCH  26  29
ENDBRANCH  25  26
ENDBRANCH  24  25
ENDBRANCH  23  24
ENDBRANCH   2  23
TORSDOF 9
ENDMDL
MODEL 5
REMARK VINA RESULT:      -5.0      9.944     12.812
REMARK  Name = 
REMARK  9 active torsions:
REMARK  status: ('A' for Active; 'I' for Inactive)
REMARK    1  A    between atoms: O_1  and  N_7
REMARK    2  A    between atoms: O_1  and  C_20
REMARK    3  A    between atoms: O_2  and  C_14
REMARK    4  A    between atoms: O_3  and  C_18
REMARK    5  A    between atoms: O_4  and  C_25
REMARK    6  A    between atoms: C_8  and  C_10
REMARK    7  A    between atoms: C_17  and  C_18
REMARK    8  A    between atoms: C_17  and  C_20
REMARK    9  A    between atoms: C_18  and  C_25
REMARK                            x       y       z     vdW  Elec       q    Type
REMARK                         _______ _______ _______ _____ _____    ______ ____
ROOT
ATOM      1  N   UNL     1       2.989 -34.060   4.989  0.00  0.00    +0.000 NA
ATOM      2  N   UNL     1       4.841 -36.191   2.842  0.00  0.00    +0.000 NA
ATOM      3  C   UNL     1       3.417 -34.404   3.800  0.00  0.00    +0.000 C 
ATOM      4  C   UNL     1       4.199 -35.704   3.856  0.00  0.00    +0.000 C 
ATOM      5  C   UNL     1       4.094 -36.123   5.247  0.00  0.00    +0.000 A 
ATOM      6  C   UNL     1       3.380 -35.092   5.859  0.00  0.00    +0.000 A 
ATOM      7  C   UNL     1       4.552 -37.225   5.946  0.00  0.00    +0.000 A 
ATOM      8  C   UNL     1       3.105 -35.147   7.214  0.00  0.00    +0.000 A 
ATOM      9  C   UNL     1       4.275 -37.283   7.314  0.00  0.00    +0.000 A 
ATOM     10  C   UNL     1       3.558 -36.251   7.944  0.00  0.00    +0.000 A 
ENDROOT
BRANCH   3  12
ATOM     11  N   UNL     1       2.289 -32.839   0.729  0.00  0.00    +0.000 N 
ATOM     12  C   UNL     1       3.145 -33.572   2.651  0.00  0.00    +0.000 A 
ATOM     13  C   UNL     1       3.696 -32.280   2.358  0.00  0.00    +0.000 A 
ATOM     14  C   UNL     1       3.152 -31.855   1.146  0.00  0.00    +0.000 A 
ATOM     15  C   UNL     1       2.255 -33.869   1.633  0.00  0.00    +0.000 A 
ATOM     16  C   UNL     1       4.622 -31.433   3.005  0.00  0.00    +0.000 A 
ATOM     17  C   UNL     1       3.482 -30.632   0.550  0.00  0.00    +0.000 A 
ATOM     18  C   UNL     1       4.964 -30.207   2.425  0.00  0.00    +0.000 A 
ATOM     19  C   UNL     1       4.401 -29.814   1.213  0.00  0.00    +0.000 A 
ATOM     20  H   UNL     1       1.741 -32.782  -0.116  0.00  0.00    +0.000 HD
BRANCH  15  21
ATOM     21  O   UNL     1       1.442 -34.908   1.478  0.00  0.00    +0.000 OA
ATOM     22  H   UNL     1       1.551 -35.298   0.596  0.00  0.00    +0.000 HD
ENDBRANCH  15  21
ENDBRANCH   3  12
BRANCH   2  23
ATOM     23  O   UNL     1       5.519 -37.369   3.162  0.00  0.00    +0.000 OA
BRANCH  23  24
ATOM     24  C   UNL     1       6.433 -37.662   2.108  0.00  0.00    +0.000 C 
BRANCH  24  25
ATOM     25  C   UNL     1       5.831 -37.223   0.781  0.00  0.00    +0.000 C 
BRANCH  25  26
ATOM     26  C   UNL     1       6.830 -36.564  -0.171  0.00  0.00    +0.000 C 
BRANCH  26  27
ATOM     27  O   UNL     1       6.503 -36.977  -1.507  0.00  0.00    +0.000 OA
ATOM     28  H   UNL     1       5.807 -37.654  -1.389  0.00  0.00    +0.000 HD
ENDBRANCH  26  27
BRANCH  26  29
ATOM     29  C   UNL     1       6.818 -35.033  -0.127  0.00  0.00    +0.000 C 
BRANCH  29  30
ATOM     30  O   UNL     1       5.473 -34.604   0.110  0.00  0.00    +0.000 OA
ATOM     31  H   UNL     1       4.926 -35.011  -0.586  0.00  0.00    +0.000 HD
ENDBRANCH  29  30
ENDBRANCH  26  29
ENDBRANCH  25  26
ENDBRANCH  24  25
ENDBRANCH  23  24
ENDBRANCH   2  23
TORSDOF 9
ENDMDL
MODEL 6
REMARK VINA RESULT:      -4.9      2.390      7.354
REMARK  Name = 
REMARK  9 active torsions:
REMARK  status: ('A' for Active; 'I' for Inactive)
REMARK    1  A    between atoms: O_1  and  N_7
REMARK    2  A    between atoms: O_1  and  C_20
REMARK    3  A    between atoms: O_2  and  C_14
REMARK    4  A    between atoms: O_3  and  C_18
REMARK    5  A    between atoms: O_4  and  C_25
REMARK    6  A    between atoms: C_8  and  C_10
REMARK    7  A    between atoms: C_17  and  C_18
REMARK    8  A    between atoms: C_17  and  C_20
REMARK    9  A    between atoms: C_18  and  C_25
REMARK                            x       y       z     vdW  Elec       q    Type
REMARK                         _______ _______ _______ _____ _____    ______ ____
ROOT
ATOM      1  N   UNL     1      -5.823 -33.512  -2.593  0.00  0.00    +0.000 NA
ATOM      2  N   UNL     1      -8.465 -34.955  -4.470  0.00  0.00    +0.000 NA
ATOM      3  C   UNL     1      -6.264 -34.209  -3.610  0.00  0.00    +0.000 C 
ATOM      4  C   UNL     1      -7.781 -34.229  -3.644  0.00  0.00    +0.000 C 
ATOM      5  C   UNL     1      -8.172 -33.363  -2.539  0.00  0.00    +0.000 A 
ATOM      6  C   UNL     1      -6.961 -32.992  -1.954  0.00  0.00    +0.000 A 
ATOM      7  C   UNL     1      -9.394 -32.938  -2.049  0.00  0.00    +0.000 A 
ATOM      8  C   UNL     1      -6.951 -32.169  -0.842  0.00  0.00    +0.000 A 
ATOM      9  C   UNL     1      -9.386 -32.106  -0.927  0.00  0.00    +0.000 A 
ATOM     10  C   UNL     1      -8.173 -31.725  -0.326  0.00  0.00    +0.000 A 
ENDROOT
BRANCH   3  12
ATOM     11  N   UNL     1      -4.077 -36.409  -5.491  0.00  0.00    +0.000 N 
ATOM     12  C   UNL     1      -5.341 -34.854  -4.515  0.00  0.00    +0.000 A 
ATOM     13  C   UNL     1      -4.664 -34.268  -5.637  0.00  0.00    +0.000 A 
ATOM     14  C   UNL     1      -3.874 -35.260  -6.217  0.00  0.00    +0.000 A 
ATOM     15  C   UNL     1      -4.974 -36.188  -4.477  0.00  0.00    +0.000 A 
ATOM     16  C   UNL     1      -4.638 -32.978  -6.208  0.00  0.00    +0.000 A 
ATOM     17  C   UNL     1      -3.063 -35.032  -7.335  0.00  0.00    +0.000 A 
ATOM     18  C   UNL     1      -3.833 -32.730  -7.326  0.00  0.00    +0.000 A 
ATOM     19  C   UNL     1      -3.057 -33.744  -7.880  0.00  0.00    +0.000 A 
ATOM     20  H   UNL     1      -3.641 -37.293  -5.706  0.00  0.00    +0.000 HD
BRANCH  15  21
ATOM     21  O   UNL     1      -5.379 -37.169  -3.679  0.00  0.00    +0.000 OA
ATOM     22  H   UNL     1      -6.014 -37.743  -4.138  0.00  0.00    +0.000 HD
ENDBRANCH  15  21
ENDBRANCH   3  12
BRANCH   2  23
ATOM     23  O   UNL     1      -9.842 -34.833  -4.266  0.00  0.00    +0.000 OA
BRANCH  23  24
ATOM     24  C   UNL     1     -10.487 -35.944  -4.883  0.00  0.00    +0.000 C 
BRANCH  24  25
ATOM     25  C   UNL     1     -11.459 -35.441  -5.941  0.00  0.00    +0.000 C 
BRANCH  25  26
ATOM     26  C   UNL     1     -12.812 -34.997  -5.386  0.00  0.00    +0.000 C 
BRANCH  26  27
ATOM     27  O   UNL     1     -13.641 -34.619  -6.496  0.00  0.00    +0.000 OA
ATOM     28  H   UNL     1     -13.369 -35.220  -7.218  0.00  0.00    +0.000 HD
ENDBRANCH  26  27
BRANCH  26  29
ATOM     29  C   UNL     1     -13.546 -36.081  -4.588  0.00  0.00    +0.000 C 
BRANCH  29  30
ATOM     30  O   UNL     1     -13.728 -37.215  -5.442  0.00  0.00    +0.000 OA
ATOM     31  H   UNL     1     -14.235 -36.903  -6.213  0.00  0.00    +0.000 HD
ENDBRANCH  29  30
ENDBRANCH  26  29
ENDBRANCH  25  26
ENDBRANCH  24  25
ENDBRANCH  23  24
ENDBRANCH   2  23
TORSDOF 9
ENDMDL
MODEL 7
REMARK VINA RESULT:      -4.9      3.695      6.794
REMARK  Name = 
REMARK  9 active torsions:
REMARK  status: ('A' for Active; 'I' for Inactive)
REMARK    1  A    between atoms: O_1  and  N_7
REMARK    2  A    between atoms: O_1  and  C_20
REMARK    3  A    between atoms: O_2  and  C_14
REMARK    4  A    between atoms: O_3  and  C_18
REMARK    5  A    between atoms: O_4  and  C_25
REMARK    6  A    between atoms: C_8  and  C_10
REMARK    7  A    between atoms: C_17  and  C_18
REMARK    8  A    between atoms: C_17  and  C_20
REMARK    9  A    between atoms: C_18  and  C_25
REMARK                            x       y       z     vdW  Elec       q    Type
REMARK                         _______ _______ _______ _____ _____    ______ ____
ROOT
ATOM      1  N   UNL     1      -1.353 -38.683  -1.435  0.00  0.00    +0.000 NA
ATOM      2  N   UNL     1      -3.246 -35.980  -2.737  0.00  0.00    +0.000 NA
ATOM      3  C   UNL     1      -2.186 -37.684  -1.283  0.00  0.00    +0.000 C 
ATOM      4  C   UNL     1      -2.546 -37.063  -2.621  0.00  0.00    +0.000 C 
ATOM      5  C   UNL     1      -1.866 -37.904  -3.597  0.00  0.00    +0.000 A 
ATOM      6  C   UNL     1      -1.166 -38.828  -2.820  0.00  0.00    +0.000 A 
ATOM      7  C   UNL     1      -1.807 -37.902  -4.979  0.00  0.00    +0.000 A 
ATOM      8  C   UNL     1      -0.378 -39.790  -3.426  0.00  0.00    +0.000 A 
ATOM      9  C   UNL     1      -1.012 -38.872  -5.593  0.00  0.00    +0.000 A 
ATOM     10  C   UNL     1      -0.301 -39.809  -4.823  0.00  0.00    +0.000 A 
ENDROOT
BRANCH   3  12
ATOM     11  N   UNL     1      -2.607 -36.597   2.152  0.00  0.00    +0.000 N 
ATOM     12  C   UNL     1      -2.630 -37.289   0.034  0.00  0.00    +0.000 A 
ATOM     13  C   UNL     1      -3.980 -37.213   0.514  0.00  0.00    +0.000 A 
ATOM     14  C   UNL     1      -3.932 -36.790   1.842  0.00  0.00    +0.000 A 
ATOM     15  C   UNL     1      -1.812 -36.871   1.069  0.00  0.00    +0.000 A 
ATOM     16  C   UNL     1      -5.245 -37.478  -0.054  0.00  0.00    +0.000 A 
ATOM     17  C   UNL     1      -5.076 -36.617   2.629  0.00  0.00    +0.000 A 
ATOM     18  C   UNL     1      -6.401 -37.310   0.717  0.00  0.00    +0.000 A 
ATOM     19  C   UNL     1      -6.315 -36.886   2.040  0.00  0.00    +0.000 A 
ATOM     20  H   UNL     1      -2.283 -36.269   3.049  0.00  0.00    +0.000 HD
BRANCH  15  21
ATOM     21  O   UNL     1      -0.496 -36.694   1.107  0.00  0.00    +0.000 OA
ATOM     22  H   UNL     1      -0.040 -37.427   0.664  0.00  0.00    +0.000 HD
ENDBRANCH  15  21
ENDBRANCH   3  12
BRANCH   2  23
ATOM     23  O   UNL     1      -3.398 -35.588  -4.069  0.00  0.00    +0.000 OA
BRANCH  23  24
ATOM     24  C   UNL     1      -3.081 -34.203  -4.169  0.00  0.00    +0.000 C 
BRANCH  24  25
ATOM     25  C   UNL     1      -3.307 -33.734  -5.599  0.00  0.00    +0.000 C 
BRANCH  25  26
ATOM     26  C   UNL     1      -4.685 -33.119  -5.845  0.00  0.00    +0.000 C 
BRANCH  26  27
ATOM     27  O   UNL     1      -4.545 -32.122  -6.869  0.00  0.00    +0.000 OA
ATOM     28  H   UNL     1      -4.272 -32.625  -7.663  0.00  0.00    +0.000 HD
ENDBRANCH  26  27
BRANCH  26  29
ATOM     29  C   UNL     1      -5.746 -34.127  -6.300  0.00  0.00    +0.000 C 
BRANCH  29  30
ATOM     30  O   UNL     1      -6.423 -33.579  -7.436  0.00  0.00    +0.000 OA
ATOM     31  H   UNL     1      -6.117 -34.084  -8.211  0.00  0.00    +0.000 HD
ENDBRANCH  29  30
ENDBRANCH  26  29
ENDBRANCH  25  26
ENDBRANCH  24  25
ENDBRANCH  23  24
ENDBRANCH   2  23
TORSDOF 9
ENDMDL
MODEL 8
REMARK VINA RESULT:      -4.9      2.677      6.780
REMARK  Name = 
REMARK  9 active torsions:
REMARK  status: ('A' for Active; 'I' for Inactive)
REMARK    1  A    between atoms: O_1  and  N_7
REMARK    2  A    between atoms: O_1  and  C_20
REMARK    3  A    between atoms: O_2  and  C_14
REMARK    4  A    between atoms: O_3  and  C_18
REMARK    5  A    between atoms: O_4  and  C_25
REMARK    6  A    between atoms: C_8  and  C_10
REMARK    7  A    between atoms: C_17  and  C_18
REMARK    8  A    between atoms: C_17  and  C_20
REMARK    9  A    between atoms: C_18  and  C_25
REMARK                            x       y       z     vdW  Elec       q    Type
REMARK                         _______ _______ _______ _____ _____    ______ ____
ROOT
ATOM      1  N   UNL     1      -2.857 -35.840  -6.048  0.00  0.00    +0.000 NA
ATOM      2  N   UNL     1      -5.799 -34.608  -4.496  0.00  0.00    +0.000 NA
ATOM      3  C   UNL     1      -3.932 -35.091  -6.051  0.00  0.00    +0.000 C 
ATOM      4  C   UNL     1      -4.644 -35.151  -4.712  0.00  0.00    +0.000 C 
ATOM      5  C   UNL     1      -3.778 -35.983  -3.887  0.00  0.00    +0.000 A 
ATOM      6  C   UNL     1      -2.753 -36.367  -4.750  0.00  0.00    +0.000 A 
ATOM      7  C   UNL     1      -3.834 -36.399  -2.568  0.00  0.00    +0.000 A 
ATOM      8  C   UNL     1      -1.739 -37.196  -4.301  0.00  0.00    +0.000 A 
ATOM      9  C   UNL     1      -2.811 -37.235  -2.112  0.00  0.00    +0.000 A 
ATOM     10  C   UNL     1      -1.772 -37.631  -2.972  0.00  0.00    +0.000 A 
ENDROOT
BRANCH   3  12
ATOM     11  N   UNL     1      -4.765 -32.675  -8.625  0.00  0.00    +0.000 N 
ATOM     12  C   UNL     1      -4.314 -34.358  -7.235  0.00  0.00    +0.000 A 
ATOM     13  C   UNL     1      -4.696 -34.895  -8.510  0.00  0.00    +0.000 A 
ATOM     14  C   UNL     1      -4.984 -33.821  -9.352  0.00  0.00    +0.000 A 
ATOM     15  C   UNL     1      -4.341 -32.979  -7.358  0.00  0.00    +0.000 A 
ATOM     16  C   UNL     1      -4.839 -36.202  -9.027  0.00  0.00    +0.000 A 
ATOM     17  C   UNL     1      -5.403 -33.982 -10.678  0.00  0.00    +0.000 A 
ATOM     18  C   UNL     1      -5.257 -36.383 -10.349  0.00  0.00    +0.000 A 
ATOM     19  C   UNL     1      -5.535 -35.287 -11.162  0.00  0.00    +0.000 A 
ATOM     20  H   UNL     1      -4.878 -31.745  -8.999  0.00  0.00    +0.000 HD
BRANCH  15  21
ATOM     21  O   UNL     1      -4.003 -32.033  -6.489  0.00  0.00    +0.000 OA
ATOM     22  H   UNL     1      -4.209 -31.154  -6.846  0.00  0.00    +0.000 HD
ENDBRANCH  15  21
ENDBRANCH   3  12
BRANCH   2  23
ATOM     23  O   UNL     1      -6.261 -34.845  -3.200  0.00  0.00    +0.000 OA
BRANCH  23  24
ATOM     24  C   UNL     1      -6.515 -33.589  -2.576  0.00  0.00    +0.000 C 
BRANCH  24  25
ATOM     25  C   UNL     1      -7.811 -33.671  -1.783  0.00  0.00    +0.000 C 
BRANCH  25  26
ATOM     26  C   UNL     1      -9.074 -33.649  -2.645  0.00  0.00    +0.000 C 
BRANCH  26  27
ATOM     27  O   UNL     1      -8.667 -33.646  -4.022  0.00  0.00    +0.000 OA
ATOM     28  H   UNL     1      -8.212 -32.788  -4.139  0.00  0.00    +0.000 HD
ENDBRANCH  26  27
BRANCH  26  29
ATOM     29  C   UNL     1     -10.002 -34.848  -2.424  0.00  0.00    +0.000 C 
BRANCH  29  30
ATOM     30  O   UNL     1     -11.061 -34.776  -3.385  0.00  0.00    +0.000 OA
ATOM     31  H   UNL     1     -10.645 -34.853  -4.262  0.00  0.00    +0.000 HD
ENDBRANCH  29  30
ENDBRANCH  26  29
ENDBRANCH  25  26
ENDBRANCH  24  25
ENDBRANCH  23  24
ENDBRANCH   2  23
TORSDOF 9
ENDMDL
MODEL 9
REMARK VINA RESULT:      -4.8     18.889     21.417
REMARK  Name = 
REMARK  9 active torsions:
REMARK  status: ('A' for Active; 'I' for Inactive)
REMARK    1  A    between atoms: O_1  and  N_7
REMARK    2  A    between atoms: O_1  and  C_20
REMARK    3  A    between atoms: O_2  and  C_14
REMARK    4  A    between atoms: O_3  and  C_18
REMARK    5  A    between atoms: O_4  and  C_25
REMARK    6  A    between atoms: C_8  and  C_10
REMARK    7  A    between atoms: C_17  and  C_18
REMARK    8  A    between atoms: C_17  and  C_20
REMARK    9  A    between atoms: C_18  and  C_25
REMARK                            x       y       z     vdW  Elec       q    Type
REMARK                         _______ _______ _______ _____ _____    ______ ____
ROOT
ATOM      1  N   UNL     1      -1.071 -17.203 -13.126  0.00  0.00    +0.000 NA
ATOM      2  N   UNL     1       0.267 -19.584 -15.390  0.00  0.00    +0.000 NA
ATOM      3  C   UNL     1      -0.154 -18.071 -13.473  0.00  0.00    +0.000 C 
ATOM      4  C   UNL     1      -0.416 -18.616 -14.865  0.00  0.00    +0.000 C 
ATOM      5  C   UNL     1      -1.582 -17.873 -15.324  0.00  0.00    +0.000 A 
ATOM      6  C   UNL     1      -1.923 -17.071 -14.236  0.00  0.00    +0.000 A 
ATOM      7  C   UNL     1      -2.303 -17.868 -16.505  0.00  0.00    +0.000 A 
ATOM      8  C   UNL     1      -3.018 -16.228 -14.310  0.00  0.00    +0.000 A 
ATOM      9  C   UNL     1      -3.409 -17.017 -16.582  0.00  0.00    +0.000 A 
ATOM     10  C   UNL     1      -3.765 -16.204 -15.492  0.00  0.00    +0.000 A 
ENDROOT
BRANCH   3  12
ATOM     11  N   UNL     1       2.317 -19.594 -11.298  0.00  0.00    +0.000 N 
ATOM     12  C   UNL     1       0.918 -18.411 -12.567  0.00  0.00    +0.000 A 
ATOM     13  C   UNL     1       1.852 -17.517 -11.944  0.00  0.00    +0.000 A 
ATOM     14  C   UNL     1       2.704 -18.284 -11.149  0.00  0.00    +0.000 A 
ATOM     15  C   UNL     1       1.258 -19.691 -12.164  0.00  0.00    +0.000 A 
ATOM     16  C   UNL     1       2.047 -16.119 -11.971  0.00  0.00    +0.000 A 
ATOM     17  C   UNL     1       3.737 -17.730 -10.384  0.00  0.00    +0.000 A 
ATOM     18  C   UNL     1       3.074 -15.547 -11.212  0.00  0.00    +0.000 A 
ATOM     19  C   UNL     1       3.906 -16.343 -10.430  0.00  0.00    +0.000 A 
ATOM     20  H   UNL     1       2.778 -20.370 -10.847  0.00  0.00    +0.000 HD
BRANCH  15  21
ATOM     21  O   UNL     1       0.750 -20.867 -12.516  0.00  0.00    +0.000 OA
ATOM     22  H   UNL     1       1.449 -21.456 -12.843  0.00  0.00    +0.000 HD
ENDBRANCH  15  21
ENDBRANCH   3  12
BRANCH   2  23
ATOM     23  O   UNL     1      -0.201 -19.933 -16.659  0.00  0.00    +0.000 OA
BRANCH  23  24
ATOM     24  C   UNL     1       0.821 -19.645 -17.610  0.00  0.00    +0.000 C 
BRANCH  24  25
ATOM     25  C   UNL     1       0.186 -19.133 -18.895  0.00  0.00    +0.000 C 
BRANCH  25  26
ATOM     26  C   UNL     1      -0.608 -20.190 -19.663  0.00  0.00    +0.000 C 
BRANCH  26  27
ATOM     27  O   UNL     1      -0.341 -21.465 -19.061  0.00  0.00    +0.000 OA
ATOM     28  H   UNL     1       0.587 -21.659 -19.301  0.00  0.00    +0.000 HD
ENDBRANCH  26  27
BRANCH  26  29
ATOM     29  C   UNL     1      -2.123 -19.963 -19.652  0.00  0.00    +0.000 C 
BRANCH  29  30
ATOM     30  O   UNL     1      -2.549 -19.724 -20.998  0.00  0.00    +0.000 OA
ATOM     31  H   UNL     1      -3.047 -18.887 -20.987  0.00  0.00    +0.000 HD
ENDBRANCH  29  30
ENDBRANCH  26  29
ENDBRANCH  25  26
ENDBRANCH  24  25
ENDBRANCH  23  24
ENDBRANCH   2  23
TORSDOF 9
ENDMDL
