MODEL 1
REMARK VINA RESULT:      -5.4      0.000      0.000
REMARK  Name = 
REMARK  6 active torsions:
REMARK  status: ('A' for Active; 'I' for Inactive)
REMARK    1  A    between atoms: O_3  and  C_16
REMARK    2  A    between atoms: O_4  and  C_17
REMARK    3  A    between atoms: O_4  and  C_22
REMARK    4  A    between atoms: O_5  and  C_19
REMARK    5  A    between atoms: O_5  and  C_23
REMARK    6  A    between atoms: O_6  and  C_21
REMARK                            x       y       z     vdW  Elec       q    Type
REMARK                         _______ _______ _______ _____ _____    ______ ____
ROOT
ATOM      1  O   UNL     1      -4.671 -27.176 -14.816  0.00  0.00    +0.000 OA
ATOM      2  O   UNL     1      -6.902 -29.398 -17.199  0.00  0.00    +0.000 OA
ATOM      3  C   UNL     1      -5.923 -27.166 -16.884  0.00  0.00    +0.000 C 
ATOM      4  C   UNL     1      -6.006 -27.326 -15.363  0.00  0.00    +0.000 C 
ATOM      5  C   UNL     1      -4.488 -27.512 -17.093  0.00  0.00    +0.000 A 
ATOM      6  C   UNL     1      -6.955 -28.025 -17.584  0.00  0.00    +0.000 C 
ATOM      7  C   UNL     1      -6.598 -28.646 -14.916  0.00  0.00    +0.000 A 
ATOM      8  C   UNL     1      -3.837 -27.461 -15.869  0.00  0.00    +0.000 A 
ATOM      9  C   UNL     1      -6.998 -29.616 -15.850  0.00  0.00    +0.000 A 
ATOM     10  C   UNL     1      -3.790 -27.783 -18.257  0.00  0.00    +0.000 A 
ATOM     11  C   UNL     1      -6.743 -28.904 -13.540  0.00  0.00    +0.000 A 
ATOM     12  C   UNL     1      -2.477 -27.675 -15.775  0.00  0.00    +0.000 A 
ATOM     13  C   UNL     1      -7.490 -30.851 -15.404  0.00  0.00    +0.000 A 
ATOM     14  C   UNL     1      -2.410 -28.016 -18.174  0.00  0.00    +0.000 A 
ATOM     15  C   UNL     1      -1.747 -27.962 -16.936  0.00  0.00    +0.000 A 
ATOM     16  C   UNL     1      -7.282 -30.108 -13.098  0.00  0.00    +0.000 A 
ATOM     17  C   UNL     1      -7.655 -31.064 -14.031  0.00  0.00    +0.000 A 
ENDROOT
BRANCH  12  18
ATOM     18  O   UNL     1      -1.849 -27.613 -14.563  0.00  0.00    +0.000 OA
ATOM     19  H   UNL     1      -2.073 -26.734 -14.206  0.00  0.00    +0.000 HD
ENDBRANCH  12  18
BRANCH  13  20
ATOM     20  O   UNL     1      -7.903 -31.893 -16.200  0.00  0.00    +0.000 OA
ATOM     21  C   UNL     1      -9.185 -31.707 -16.798  0.00  0.00    +0.000 C 
ENDBRANCH  13  20
BRANCH  15  22
ATOM     22  O   UNL     1      -0.403 -28.165 -16.735  0.00  0.00    +0.000 OA
ATOM     23  C   UNL     1       0.276 -28.956 -17.703  0.00  0.00    +0.000 C 
ENDBRANCH  15  22
BRANCH  17  24
ATOM     24  O   UNL     1      -8.183 -32.242 -13.575  0.00  0.00    +0.000 OA
ATOM     25  H   UNL     1      -9.112 -32.033 -13.360  0.00  0.00    +0.000 HD
ENDBRANCH  17  24
TORSDOF 4
ENDMDL
MODEL 2
REMARK VINA RESULT:      -5.2      8.757     12.210
REMARK  Name = 
REMARK  6 active torsions:
REMARK  status: ('A' for Active; 'I' for Inactive)
REMARK    1  A    between atoms: O_3  and  C_16
REMARK    2  A    between atoms: O_4  and  C_17
REMARK    3  A    between atoms: O_4  and  C_22
REMARK    4  A    between atoms: O_5  and  C_19
REMARK    5  A    between atoms: O_5  and  C_23
REMARK    6  A    between atoms: O_6  and  C_21
REMARK                            x       y       z     vdW  Elec       q    Type
REMARK                         _______ _______ _______ _____ _____    ______ ____
ROOT
ATOM      1  O   UNL     1      -4.902 -32.663  -6.201  0.00  0.00    +0.000 OA
ATOM      2  O   UNL     1      -3.770 -36.253  -7.392  0.00  0.00    +0.000 OA
ATOM      3  C   UNL     1      -3.219 -34.374  -5.908  0.00  0.00    +0.000 C 
ATOM      4  C   UNL     1      -3.854 -33.388  -6.894  0.00  0.00    +0.000 C 
ATOM      5  C   UNL     1      -4.340 -34.510  -4.936  0.00  0.00    +0.000 A 
ATOM      6  C   UNL     1      -2.750 -35.630  -6.613  0.00  0.00    +0.000 C 
ATOM      7  C   UNL     1      -4.419 -34.041  -8.137  0.00  0.00    +0.000 A 
ATOM      8  C   UNL     1      -5.239 -33.476  -5.147  0.00  0.00    +0.000 A 
ATOM      9  C   UNL     1      -4.364 -35.434  -8.315  0.00  0.00    +0.000 A 
ATOM     10  C   UNL     1      -4.531 -35.418  -3.909  0.00  0.00    +0.000 A 
ATOM     11  C   UNL     1      -5.014 -33.237  -9.127  0.00  0.00    +0.000 A 
ATOM     12  C   UNL     1      -6.347 -33.318  -4.340  0.00  0.00    +0.000 A 
ATOM     13  C   UNL     1      -4.946 -36.015  -9.451  0.00  0.00    +0.000 A 
ATOM     14  C   UNL     1      -5.661 -35.278  -3.090  0.00  0.00    +0.000 A 
ATOM     15  C   UNL     1      -6.572 -34.229  -3.299  0.00  0.00    +0.000 A 
ATOM     16  C   UNL     1      -5.543 -33.808 -10.280  0.00  0.00    +0.000 A 
ATOM     17  C   UNL     1      -5.499 -35.185 -10.434  0.00  0.00    +0.000 A 
ENDROOT
BRANCH  12  18
ATOM     18  O   UNL     1      -7.220 -32.288  -4.555  0.00  0.00    +0.000 OA
ATOM     19  H   UNL     1      -6.709 -31.624  -5.055  0.00  0.00    +0.000 HD
ENDBRANCH  12  18
BRANCH  13  20
ATOM     20  O   UNL     1      -4.980 -37.357  -9.747  0.00  0.00    +0.000 OA
ATOM     21  C   UNL     1      -3.773 -37.867 -10.309  0.00  0.00    +0.000 C 
ENDBRANCH  13  20
BRANCH  15  22
ATOM     22  O   UNL     1      -7.704 -33.989  -2.559  0.00  0.00    +0.000 OA
ATOM     23  C   UNL     1      -7.515 -33.677  -1.183  0.00  0.00    +0.000 C 
ENDBRANCH  15  22
BRANCH  17  24
ATOM     24  O   UNL     1      -6.026 -35.728 -11.575  0.00  0.00    +0.000 OA
ATOM     25  H   UNL     1      -6.295 -36.631 -11.322  0.00  0.00    +0.000 HD
ENDBRANCH  17  24
TORSDOF 4
ENDMDL
MODEL 3
REMARK VINA RESULT:      -5.2      1.539      2.020
REMARK  Name = 
REMARK  6 active torsions:
REMARK  status: ('A' for Active; 'I' for Inactive)
REMARK    1  A    between atoms: O_3  and  C_16
REMARK    2  A    between atoms: O_4  and  C_17
REMARK    3  A    between atoms: O_4  and  C_22
REMARK    4  A    between atoms: O_5  and  C_19
REMARK    5  A    between atoms: O_5  and  C_23
REMARK    6  A    between atoms: O_6  and  C_21
REMARK                            x       y       z     vdW  Elec       q    Type
REMARK                         _______ _______ _______ _____ _____    ______ ____
ROOT
ATOM      1  O   UNL     1      -5.655 -28.067 -14.144  0.00  0.00    +0.000 OA
ATOM      2  O   UNL     1      -8.795 -29.171 -16.267  0.00  0.00    +0.000 OA
ATOM      3  C   UNL     1      -7.629 -27.250 -15.275  0.00  0.00    +0.000 C 
ATOM      4  C   UNL     1      -7.103 -28.135 -14.139  0.00  0.00    +0.000 C 
ATOM      5  C   UNL     1      -6.426 -27.231 -16.153  0.00  0.00    +0.000 A 
ATOM      6  C   UNL     1      -8.909 -27.809 -15.859  0.00  0.00    +0.000 C 
ATOM      7  C   UNL     1      -7.550 -29.578 -14.229  0.00  0.00    +0.000 A 
ATOM      8  C   UNL     1      -5.335 -27.679 -15.422  0.00  0.00    +0.000 A 
ATOM      9  C   UNL     1      -8.354 -30.025 -15.291  0.00  0.00    +0.000 A 
ATOM     10  C   UNL     1      -6.274 -26.798 -17.459  0.00  0.00    +0.000 A 
ATOM     11  C   UNL     1      -7.145 -30.487 -13.234  0.00  0.00    +0.000 A 
ATOM     12  C   UNL     1      -4.069 -27.703 -15.971  0.00  0.00    +0.000 A 
ATOM     13  C   UNL     1      -8.704 -31.380 -15.377  0.00  0.00    +0.000 A 
ATOM     14  C   UNL     1      -4.995 -26.830 -18.034  0.00  0.00    +0.000 A 
ATOM     15  C   UNL     1      -3.888 -27.281 -17.295  0.00  0.00    +0.000 A 
ATOM     16  C   UNL     1      -7.538 -31.821 -13.289  0.00  0.00    +0.000 A 
ATOM     17  C   UNL     1      -8.316 -32.251 -14.353  0.00  0.00    +0.000 A 
ENDROOT
BRANCH  12  18
ATOM     18  O   UNL     1      -3.003 -28.140 -15.234  0.00  0.00    +0.000 OA
ATOM     19  H   UNL     1      -3.008 -27.587 -14.431  0.00  0.00    +0.000 HD
ENDBRANCH  12  18
BRANCH  13  20
ATOM     20  O   UNL     1      -9.469 -31.958 -16.363  0.00  0.00    +0.000 OA
ATOM     21  C   UNL     1      -8.744 -32.319 -17.537  0.00  0.00    +0.000 C 
ENDBRANCH  13  20
BRANCH  15  22
ATOM     22  O   UNL     1      -2.594 -27.350 -17.749  0.00  0.00    +0.000 OA
ATOM     23  C   UNL     1      -2.414 -27.440 -19.158  0.00  0.00    +0.000 C 
ENDBRANCH  15  22
BRANCH  17  24
ATOM     24  O   UNL     1      -8.692 -33.568 -14.389  0.00  0.00    +0.000 OA
ATOM     25  H   UNL     1      -9.596 -33.580 -14.021  0.00  0.00    +0.000 HD
ENDBRANCH  17  24
TORSDOF 4
ENDMDL
MODEL 4
REMARK VINA RESULT:      -5.0     13.038     16.194
REMARK  Name = 
REMARK  6 active torsions:
REMARK  status: ('A' for Active; 'I' for Inactive)
REMARK    1  A    between atoms: O_3  and  C_16
REMARK    2  A    between atoms: O_4  and  C_17
REMARK    3  A    between atoms: O_4  and  C_22
REMARK    4  A    between atoms: O_5  and  C_19
REMARK    5  A    between atoms: O_5  and  C_23
REMARK    6  A    between atoms: O_6  and  C_21
REMARK                            x       y       z     vdW  Elec       q    Type
REMARK                         _______ _______ _______ _____ _____    ______ ____
ROOT
ATOM      1  O   UNL     1      -2.142 -36.931  -2.385  0.00  0.00    +0.000 OA
ATOM      2  O   UNL     1      -5.738 -36.723  -4.002  0.00  0.00    +0.000 OA
ATOM      3  C   UNL     1      -4.024 -38.252  -3.130  0.00  0.00    +0.000 C 
ATOM      4  C   UNL     1      -2.918 -37.283  -3.559  0.00  0.00    +0.000 C 
ATOM      5  C   UNL     1      -4.116 -37.903  -1.685  0.00  0.00    +0.000 A 
ATOM      6  C   UNL     1      -5.270 -38.070  -3.972  0.00  0.00    +0.000 C 
ATOM      7  C   UNL     1      -3.428 -36.027  -4.231  0.00  0.00    +0.000 A 
ATOM      8  C   UNL     1      -2.987 -37.179  -1.331  0.00  0.00    +0.000 A 
ATOM      9  C   UNL     1      -4.805 -35.803  -4.403  0.00  0.00    +0.000 A 
ATOM     10  C   UNL     1      -5.068 -38.241  -0.738  0.00  0.00    +0.000 A 
ATOM     11  C   UNL     1      -2.506 -35.067  -4.685  0.00  0.00    +0.000 A 
ATOM     12  C   UNL     1      -2.776 -36.778  -0.027  0.00  0.00    +0.000 A 
ATOM     13  C   UNL     1      -5.249 -34.604  -4.979  0.00  0.00    +0.000 A 
ATOM     14  C   UNL     1      -4.873 -37.827   0.588  0.00  0.00    +0.000 A 
ATOM     15  C   UNL     1      -3.728 -37.097   0.950  0.00  0.00    +0.000 A 
ATOM     16  C   UNL     1      -2.945 -33.901  -5.307  0.00  0.00    +0.000 A 
ATOM     17  C   UNL     1      -4.306 -33.685  -5.453  0.00  0.00    +0.000 A 
ENDROOT
BRANCH  12  18
ATOM     18  O   UNL     1      -1.654 -36.073   0.307  0.00  0.00    +0.000 OA
ATOM     19  H   UNL     1      -1.306 -35.734  -0.538  0.00  0.00    +0.000 HD
ENDBRANCH  12  18
BRANCH  13  20
ATOM     20  O   UNL     1      -6.559 -34.246  -5.194  0.00  0.00    +0.000 OA
ATOM     21  C   UNL     1      -7.209 -33.676  -4.060  0.00  0.00    +0.000 C 
ENDBRANCH  13  20
BRANCH  15  22
ATOM     22  O   UNL     1      -3.429 -36.647   2.213  0.00  0.00    +0.000 OA
ATOM     23  C   UNL     1      -3.860 -37.458   3.300  0.00  0.00    +0.000 C 
ENDBRANCH  15  22
BRANCH  17  24
ATOM     24  O   UNL     1      -4.717 -32.531  -6.066  0.00  0.00    +0.000 OA
ATOM     25  H   UNL     1      -4.285 -32.546  -6.941  0.00  0.00    +0.000 HD
ENDBRANCH  17  24
TORSDOF 4
ENDMDL
MODEL 5
REMARK VINA RESULT:      -4.9      8.279     11.084
REMARK  Name = 
REMARK  6 active torsions:
REMARK  status: ('A' for Active; 'I' for Inactive)
REMARK    1  A    between atoms: O_3  and  C_16
REMARK    2  A    between atoms: O_4  and  C_17
REMARK    3  A    between atoms: O_4  and  C_22
REMARK    4  A    between atoms: O_5  and  C_19
REMARK    5  A    between atoms: O_5  and  C_23
REMARK    6  A    between atoms: O_6  and  C_21
REMARK                            x       y       z     vdW  Elec       q    Type
REMARK                         _______ _______ _______ _____ _____    ______ ____
ROOT
ATOM      1  O   UNL     1      -5.995 -34.030  -9.169  0.00  0.00    +0.000 OA
ATOM      2  O   UNL     1      -2.137 -33.296  -8.762  0.00  0.00    +0.000 OA
ATOM      3  C   UNL     1      -4.386 -32.321  -8.591  0.00  0.00    +0.000 C 
ATOM      4  C   UNL     1      -4.891 -33.252  -9.698  0.00  0.00    +0.000 C 
ATOM      5  C   UNL     1      -4.871 -33.068  -7.397  0.00  0.00    +0.000 A 
ATOM      6  C   UNL     1      -2.894 -32.087  -8.708  0.00  0.00    +0.000 C 
ATOM      7  C   UNL     1      -3.830 -34.178 -10.253  0.00  0.00    +0.000 A 
ATOM      8  C   UNL     1      -5.812 -34.001  -7.808  0.00  0.00    +0.000 A 
ATOM      9  C   UNL     1      -2.519 -34.165  -9.749  0.00  0.00    +0.000 A 
ATOM     10  C   UNL     1      -4.572 -32.908  -6.055  0.00  0.00    +0.000 A 
ATOM     11  C   UNL     1      -4.168 -35.069 -11.288  0.00  0.00    +0.000 A 
ATOM     12  C   UNL     1      -6.479 -34.793  -6.896  0.00  0.00    +0.000 A 
ATOM     13  C   UNL     1      -1.573 -35.074 -10.245  0.00  0.00    +0.000 A 
ATOM     14  C   UNL     1      -5.232 -33.717  -5.118  0.00  0.00    +0.000 A 
ATOM     15  C   UNL     1      -6.187 -34.660  -5.532  0.00  0.00    +0.000 A 
ATOM     16  C   UNL     1      -3.215 -35.934 -11.819  0.00  0.00    +0.000 A 
ATOM     17  C   UNL     1      -1.931 -35.924 -11.298  0.00  0.00    +0.000 A 
ENDROOT
BRANCH  12  18
ATOM     18  O   UNL     1      -7.409 -35.701  -7.318  0.00  0.00    +0.000 OA
ATOM     19  H   UNL     1      -7.933 -35.233  -7.993  0.00  0.00    +0.000 HD
ENDBRANCH  12  18
BRANCH  13  20
ATOM     20  O   UNL     1      -0.265 -35.184  -9.837  0.00  0.00    +0.000 OA
ATOM     21  C   UNL     1       0.619 -34.232 -10.427  0.00  0.00    +0.000 C 
ENDBRANCH  13  20
BRANCH  15  22
ATOM     22  O   UNL     1      -6.899 -35.497  -4.708  0.00  0.00    +0.000 OA
ATOM     23  C   UNL     1      -7.768 -34.880  -3.765  0.00  0.00    +0.000 C 
ENDBRANCH  15  22
BRANCH  17  24
ATOM     24  O   UNL     1      -1.008 -36.783 -11.834  0.00  0.00    +0.000 OA
ATOM     25  H   UNL     1      -1.437 -37.143 -12.633  0.00  0.00    +0.000 HD
ENDBRANCH  17  24
TORSDOF 4
ENDMDL
MODEL 6
REMARK VINA RESULT:      -4.8     10.457     13.105
REMARK  Name = 
REMARK  6 active torsions:
REMARK  status: ('A' for Active; 'I' for Inactive)
REMARK    1  A    between atoms: O_3  and  C_16
REMARK    2  A    between atoms: O_4  and  C_17
REMARK    3  A    between atoms: O_4  and  C_22
REMARK    4  A    between atoms: O_5  and  C_19
REMARK    5  A    between atoms: O_5  and  C_23
REMARK    6  A    between atoms: O_6  and  C_21
REMARK                            x       y       z     vdW  Elec       q    Type
REMARK                         _______ _______ _______ _____ _____    ______ ____
ROOT
ATOM      1  O   UNL     1      -1.880 -16.828 -17.462  0.00  0.00    +0.000 OA
ATOM      2  O   UNL     1      -1.922 -17.098 -13.524  0.00  0.00    +0.000 OA
ATOM      3  C   UNL     1      -3.325 -16.843 -15.524  0.00  0.00    +0.000 C 
ATOM      4  C   UNL     1      -2.192 -16.104 -16.245  0.00  0.00    +0.000 C 
ATOM      5  C   UNL     1      -3.146 -18.202 -16.107  0.00  0.00    +0.000 A 
ATOM      6  C   UNL     1      -3.201 -16.706 -14.021  0.00  0.00    +0.000 C 
ATOM      7  C   UNL     1      -0.940 -15.939 -15.411  0.00  0.00    +0.000 A 
ATOM      8  C   UNL     1      -2.337 -18.102 -17.229  0.00  0.00    +0.000 A 
ATOM      9  C   UNL     1      -0.862 -16.456 -14.107  0.00  0.00    +0.000 A 
ATOM     10  C   UNL     1      -3.694 -19.418 -15.734  0.00  0.00    +0.000 A 
ATOM     11  C   UNL     1       0.166 -15.261 -15.957  0.00  0.00    +0.000 A 
ATOM     12  C   UNL     1      -2.057 -19.205 -18.008  0.00  0.00    +0.000 A 
ATOM     13  C   UNL     1       0.332 -16.336 -13.380  0.00  0.00    +0.000 A 
ATOM     14  C   UNL     1      -3.405 -20.550 -16.509  0.00  0.00    +0.000 A 
ATOM     15  C   UNL     1      -2.589 -20.451 -17.648  0.00  0.00    +0.000 A 
ATOM     16  C   UNL     1       1.332 -15.095 -15.216  0.00  0.00    +0.000 A 
ATOM     17  C   UNL     1       1.401 -15.626 -13.938  0.00  0.00    +0.000 A 
ENDROOT
BRANCH  12  18
ATOM     18  O   UNL     1      -1.265 -19.088 -19.116  0.00  0.00    +0.000 OA
ATOM     19  H   UNL     1      -1.131 -18.129 -19.231  0.00  0.00    +0.000 HD
ENDBRANCH  12  18
BRANCH  13  20
ATOM     20  O   UNL     1       0.555 -16.804 -12.107  0.00  0.00    +0.000 OA
ATOM     21  C   UNL     1       0.967 -18.168 -12.043  0.00  0.00    +0.000 C 
ENDBRANCH  13  20
BRANCH  15  22
ATOM     22  O   UNL     1      -2.246 -21.486 -18.483  0.00  0.00    +0.000 OA
ATOM     23  C   UNL     1      -3.316 -22.198 -19.093  0.00  0.00    +0.000 C 
ENDBRANCH  15  22
BRANCH  17  24
ATOM     24  O   UNL     1       2.558 -15.451 -13.225  0.00  0.00    +0.000 OA
ATOM     25  H   UNL     1       2.704 -14.486 -13.218  0.00  0.00    +0.000 HD
ENDBRANCH  17  24
TORSDOF 4
ENDMDL
MODEL 7
REMARK VINA RESULT:      -4.8     20.321     22.124
REMARK  Name = 
REMARK  6 active torsions:
REMARK  status: ('A' for Active; 'I' for Inactive)
REMARK    1  A    between atoms: O_3  and  C_16
REMARK    2  A    between atoms: O_4  and  C_17
REMARK    3  A    between atoms: O_4  and  C_22
REMARK    4  A    between atoms: O_5  and  C_19
REMARK    5  A    between atoms: O_5  and  C_23
REMARK    6  A    between atoms: O_6  and  C_21
REMARK                            x       y       z     vdW  Elec       q    Type
REMARK                         _______ _______ _______ _____ _____    ______ ____
ROOT
ATOM      1  O   UNL     1      -3.945 -14.908  -1.328  0.00  0.00    +0.000 OA
ATOM      2  O   UNL     1      -2.912 -11.398   0.155  0.00  0.00    +0.000 OA
ATOM      3  C   UNL     1      -2.297 -13.773   0.028  0.00  0.00    +0.000 C 
ATOM      4  C   UNL     1      -3.773 -14.166  -0.094  0.00  0.00    +0.000 C 
ATOM      5  C   UNL     1      -1.903 -13.834  -1.407  0.00  0.00    +0.000 A 
ATOM      6  C   UNL     1      -2.139 -12.445   0.739  0.00  0.00    +0.000 C 
ATOM      7  C   UNL     1      -4.725 -12.989  -0.067  0.00  0.00    +0.000 A 
ATOM      8  C   UNL     1      -2.880 -14.527  -2.107  0.00  0.00    +0.000 A 
ATOM      9  C   UNL     1      -4.249 -11.671   0.039  0.00  0.00    +0.000 A 
ATOM     10  C   UNL     1      -0.760 -13.382  -2.045  0.00  0.00    +0.000 A 
ATOM     11  C   UNL     1      -6.110 -13.223  -0.155  0.00  0.00    +0.000 A 
ATOM     12  C   UNL     1      -2.741 -14.792  -3.455  0.00  0.00    +0.000 A 
ATOM     13  C   UNL     1      -5.153 -10.600   0.005  0.00  0.00    +0.000 A 
ATOM     14  C   UNL     1      -0.613 -13.632  -3.417  0.00  0.00    +0.000 A 
ATOM     15  C   UNL     1      -1.599 -14.337  -4.127  0.00  0.00    +0.000 A 
ATOM     16  C   UNL     1      -7.011 -12.162  -0.133  0.00  0.00    +0.000 A 
ATOM     17  C   UNL     1      -6.526 -10.866  -0.047  0.00  0.00    +0.000 A 
ENDROOT
BRANCH  12  18
ATOM     18  O   UNL     1      -3.708 -15.484  -4.127  0.00  0.00    +0.000 OA
ATOM     19  H   UNL     1      -4.017 -16.163  -3.499  0.00  0.00    +0.000 HD
ENDBRANCH  12  18
BRANCH  13  20
ATOM     20  O   UNL     1      -4.830  -9.265   0.083  0.00  0.00    +0.000 OA
ATOM     21  C   UNL     1      -4.487  -8.667  -1.165  0.00  0.00    +0.000 C 
ENDBRANCH  13  20
BRANCH  15  22
ATOM     22  O   UNL     1      -1.559 -14.645  -5.465  0.00  0.00    +0.000 OA
ATOM     23  C   UNL     1      -0.517 -14.047  -6.229  0.00  0.00    +0.000 C 
ENDBRANCH  15  22
BRANCH  17  24
ATOM     24  O   UNL     1      -7.429  -9.837  -0.028  0.00  0.00    +0.000 OA
ATOM     25  H   UNL     1      -8.040 -10.054   0.701  0.00  0.00    +0.000 HD
ENDBRANCH  17  24
TORSDOF 4
ENDMDL
MODEL 8
REMARK VINA RESULT:      -4.8      9.302     13.579
REMARK  Name = 
REMARK  6 active torsions:
REMARK  status: ('A' for Active; 'I' for Inactive)
REMARK    1  A    between atoms: O_3  and  C_16
REMARK    2  A    between atoms: O_4  and  C_17
REMARK    3  A    between atoms: O_4  and  C_22
REMARK    4  A    between atoms: O_5  and  C_19
REMARK    5  A    between atoms: O_5  and  C_23
REMARK    6  A    between atoms: O_6  and  C_21
REMARK                            x       y       z     vdW  Elec       q    Type
REMARK                         _______ _______ _______ _____ _____    ______ ____
ROOT
ATOM      1  O   UNL     1      -7.717 -35.650  -3.860  0.00  0.00    +0.000 OA
ATOM      2  O   UNL     1      -6.702 -35.627  -7.675  0.00  0.00    +0.000 OA
ATOM      3  C   UNL     1      -7.467 -37.043  -5.820  0.00  0.00    +0.000 C 
ATOM      4  C   UNL     1      -6.741 -36.144  -4.813  0.00  0.00    +0.000 C 
ATOM      5  C   UNL     1      -8.851 -36.511  -5.677  0.00  0.00    +0.000 A 
ATOM      6  C   UNL     1      -6.826 -36.962  -7.189  0.00  0.00    +0.000 C 
ATOM      7  C   UNL     1      -6.008 -34.982  -5.446  0.00  0.00    +0.000 A 
ATOM      8  C   UNL     1      -8.919 -35.755  -4.516  0.00  0.00    +0.000 A 
ATOM      9  C   UNL     1      -6.039 -34.772  -6.835  0.00  0.00    +0.000 A 
ATOM     10  C   UNL     1      -9.977 -36.719  -6.455  0.00  0.00    +0.000 A 
ATOM     11  C   UNL     1      -5.289 -34.093  -4.625  0.00  0.00    +0.000 A 
ATOM     12  C   UNL     1     -10.108 -35.192  -4.099  0.00  0.00    +0.000 A 
ATOM     13  C   UNL     1      -5.396 -33.654  -7.385  0.00  0.00    +0.000 A 
ATOM     14  C   UNL     1     -11.189 -36.140  -6.050  0.00  0.00    +0.000 A 
ATOM     15  C   UNL     1     -11.261 -35.377  -4.873  0.00  0.00    +0.000 A 
ATOM     16  C   UNL     1      -4.605 -33.014  -5.177  0.00  0.00    +0.000 A 
ATOM     17  C   UNL     1      -4.660 -32.809  -6.547  0.00  0.00    +0.000 A 
ENDROOT
BRANCH  12  18
ATOM     18  O   UNL     1     -10.159 -34.457  -2.948  0.00  0.00    +0.000 OA
ATOM     19  H   UNL     1      -9.418 -33.827  -3.015  0.00  0.00    +0.000 HD
ENDBRANCH  12  18
BRANCH  13  20
ATOM     20  O   UNL     1      -5.356 -33.318  -8.718  0.00  0.00    +0.000 OA
ATOM     21  C   UNL     1      -4.382 -34.032  -9.477  0.00  0.00    +0.000 C 
ENDBRANCH  13  20
BRANCH  15  22
ATOM     22  O   UNL     1     -12.390 -34.771  -4.377  0.00  0.00    +0.000 OA
ATOM     23  C   UNL     1     -13.640 -35.274  -4.834  0.00  0.00    +0.000 C 
ENDBRANCH  15  22
BRANCH  17  24
ATOM     24  O   UNL     1      -3.981 -31.741  -7.070  0.00  0.00    +0.000 OA
ATOM     25  H   UNL     1      -4.338 -31.636  -7.973  0.00  0.00    +0.000 HD
ENDBRANCH  17  24
TORSDOF 4
ENDMDL
MODEL 9
REMARK VINA RESULT:      -4.7     26.227     28.544
REMARK  Name = 
REMARK  6 active torsions:
REMARK  status: ('A' for Active; 'I' for Inactive)
REMARK    1  A    between atoms: O_3  and  C_16
REMARK    2  A    between atoms: O_4  and  C_17
REMARK    3  A    between atoms: O_4  and  C_22
REMARK    4  A    between atoms: O_5  and  C_19
REMARK    5  A    between atoms: O_5  and  C_23
REMARK    6  A    between atoms: O_6  and  C_21
REMARK                            x       y       z     vdW  Elec       q    Type
REMARK                         _______ _______ _______ _____ _____    ______ ____
ROOT
ATOM      1  O   UNL     1     -12.277  -6.436  -4.795  0.00  0.00    +0.000 OA
ATOM      2  O   UNL     1     -11.512  -3.012  -6.607  0.00  0.00    +0.000 OA
ATOM      3  C   UNL     1     -12.446  -5.265  -6.903  0.00  0.00    +0.000 C 
ATOM      4  C   UNL     1     -11.487  -5.820  -5.844  0.00  0.00    +0.000 C 
ATOM      5  C   UNL     1     -13.675  -5.118  -6.075  0.00  0.00    +0.000 A 
ATOM      6  C   UNL     1     -11.886  -4.015  -7.550  0.00  0.00    +0.000 C 
ATOM      7  C   UNL     1     -10.564  -4.779  -5.247  0.00  0.00    +0.000 A 
ATOM      8  C   UNL     1     -13.511  -5.843  -4.904  0.00  0.00    +0.000 A 
ATOM      9  C   UNL     1     -10.634  -3.433  -5.643  0.00  0.00    +0.000 A 
ATOM     10  C   UNL     1     -14.865  -4.462  -6.342  0.00  0.00    +0.000 A 
ATOM     11  C   UNL     1      -9.626  -5.169  -4.274  0.00  0.00    +0.000 A 
ATOM     12  C   UNL     1     -14.527  -5.938  -3.974  0.00  0.00    +0.000 A 
ATOM     13  C   UNL     1      -9.804  -2.483  -5.031  0.00  0.00    +0.000 A 
ATOM     14  C   UNL     1     -15.900  -4.537  -5.399  0.00  0.00    +0.000 A 
ATOM     15  C   UNL     1     -15.738  -5.275  -4.214  0.00  0.00    +0.000 A 
ATOM     16  C   UNL     1      -8.764  -4.236  -3.706  0.00  0.00    +0.000 A 
ATOM     17  C   UNL     1      -8.857  -2.908  -4.093  0.00  0.00    +0.000 A 
ENDROOT
BRANCH  12  18
ATOM     18  O   UNL     1     -14.352  -6.664  -2.830  0.00  0.00    +0.000 OA
ATOM     19  H   UNL     1     -15.194  -7.140  -2.701  0.00  0.00    +0.000 HD
ENDBRANCH  12  18
BRANCH  13  20
ATOM     20  O   UNL     1      -9.775  -1.136  -5.307  0.00  0.00    +0.000 OA
ATOM     21  C   UNL     1     -10.774  -0.374  -4.634  0.00  0.00    +0.000 C 
ENDBRANCH  13  20
BRANCH  15  22
ATOM     22  O   UNL     1     -16.681  -5.425  -3.226  0.00  0.00    +0.000 OA
ATOM     23  C   UNL     1     -17.996  -5.774  -3.645  0.00  0.00    +0.000 C 
ENDBRANCH  15  22
BRANCH  17  24
ATOM     24  O   UNL     1      -8.000  -2.005  -3.521  0.00  0.00    +0.000 OA
ATOM     25  H   UNL     1      -8.457  -1.705  -2.712  0.00  0.00    +0.000 HD
ENDBRANCH  17  24
TORSDOF 4
ENDMDL
