MODEL 1
REMARK VINA RESULT:      -5.1      0.000      0.000
REMARK  Name = IPA3.pdbqt.pdb
REMARK  5 active torsions:
REMARK  status: ('A' for Active; 'I' for Inactive)
REMARK    1  A    between atoms: S_1  and  S_2
REMARK    2  A    between atoms: S_1  and  C_15
REMARK    3  A    between atoms: S_2  and  C_3
REMARK    4  A    between atoms: C_10  and  O_13
REMARK    5  A    between atoms: C_22  and  O_25
REMARK                            x       y       z     vdW  Elec       q    Type
REMARK                         _______ _______ _______ _____ _____    ______ ____
ROOT
ATOM      1  S   UNL     1      -1.914 -17.101   0.499  0.00  0.00    +0.000 S 
ENDROOT
BRANCH   1   2
ATOM      2  C   UNL     1      -2.900 -16.150  -0.667  0.00  0.00    +0.000 A 
ATOM      3  C   UNL     1      -3.796 -15.148  -0.222  0.00  0.00    +0.000 A 
ATOM      4  C   UNL     1      -4.528 -14.409  -1.181  0.00  0.00    +0.000 A 
ATOM      5  C   UNL     1      -3.995 -14.830   1.133  0.00  0.00    +0.000 A 
ATOM      6  C   UNL     1      -4.382 -14.674  -2.541  0.00  0.00    +0.000 A 
ATOM      7  C   UNL     1      -5.401 -13.398  -0.781  0.00  0.00    +0.000 A 
ATOM      8  C   UNL     1      -3.515 -15.669  -2.974  0.00  0.00    +0.000 A 
ATOM      9  C   UNL     1      -2.780 -16.398  -2.044  0.00  0.00    +0.000 A 
ATOM     10  C   UNL     1      -5.570 -13.101   0.568  0.00  0.00    +0.000 A 
ATOM     11  C   UNL     1      -4.867 -13.818   1.527  0.00  0.00    +0.000 A 
BRANCH   9  12
ATOM     12  O   UNL     1      -1.939 -17.355  -2.547  0.00  0.00    +0.000 OA
ATOM     13  H   UNL     1      -1.517 -16.989  -3.346  0.00  0.00    +0.000 HD
ENDBRANCH   9  12
ENDBRANCH   1   2
BRANCH   1  14
ATOM     14  S   UNL     1      -3.095 -18.766   0.782  0.00  0.00    +0.000 S 
BRANCH  14  15
ATOM     15  C   UNL     1      -3.932 -18.361   2.321  0.00  0.00    +0.000 A 
ATOM     16  C   UNL     1      -5.273 -17.908   2.327  0.00  0.00    +0.000 A 
ATOM     17  C   UNL     1      -5.896 -17.630   3.566  0.00  0.00    +0.000 A 
ATOM     18  C   UNL     1      -6.038 -17.727   1.161  0.00  0.00    +0.000 A 
ATOM     19  C   UNL     1      -5.196 -17.783   4.759  0.00  0.00    +0.000 A 
ATOM     20  C   UNL     1      -7.223 -17.203   3.613  0.00  0.00    +0.000 A 
ATOM     21  C   UNL     1      -3.875 -18.213   4.751  0.00  0.00    +0.000 A 
ATOM     22  C   UNL     1      -3.252 -18.500   3.542  0.00  0.00    +0.000 A 
ATOM     23  C   UNL     1      -7.957 -17.043   2.440  0.00  0.00    +0.000 A 
ATOM     24  C   UNL     1      -7.363 -17.303   1.211  0.00  0.00    +0.000 A 
BRANCH  22  25
ATOM     25  O   UNL     1      -1.952 -18.928   3.613  0.00  0.00    +0.000 OA
ATOM     26  H   UNL     1      -1.899 -19.789   3.158  0.00  0.00    +0.000 HD
ENDBRANCH  22  25
ENDBRANCH  14  15
ENDBRANCH   1  14
TORSDOF 5
ENDMDL
MODEL 2
REMARK VINA RESULT:      -4.9     18.440     19.842
REMARK  Name = IPA3.pdbqt.pdb
REMARK  5 active torsions:
REMARK  status: ('A' for Active; 'I' for Inactive)
REMARK    1  A    between atoms: S_1  and  S_2
REMARK    2  A    between atoms: S_1  and  C_15
REMARK    3  A    between atoms: S_2  and  C_3
REMARK    4  A    between atoms: C_10  and  O_13
REMARK    5  A    between atoms: C_22  and  O_25
REMARK                            x       y       z     vdW  Elec       q    Type
REMARK                         _______ _______ _______ _____ _____    ______ ____
ROOT
ATOM      1  S   UNL     1      -3.434 -34.953  -5.713  0.00  0.00    +0.000 S 
ENDROOT
BRANCH   1   2
ATOM      2  C   UNL     1      -3.036 -34.121  -7.258  0.00  0.00    +0.000 A 
ATOM      3  C   UNL     1      -2.388 -34.808  -8.313  0.00  0.00    +0.000 A 
ATOM      4  C   UNL     1      -2.123 -34.117  -9.518  0.00  0.00    +0.000 A 
ATOM      5  C   UNL     1      -2.000 -36.157  -8.239  0.00  0.00    +0.000 A 
ATOM      6  C   UNL     1      -2.477 -32.777  -9.659  0.00  0.00    +0.000 A 
ATOM      7  C   UNL     1      -1.508 -34.768 -10.588  0.00  0.00    +0.000 A 
ATOM      8  C   UNL     1      -3.097 -32.101  -8.616  0.00  0.00    +0.000 A 
ATOM      9  C   UNL     1      -3.375 -32.769  -7.428  0.00  0.00    +0.000 A 
ATOM     10  C   UNL     1      -1.143 -36.107 -10.486  0.00  0.00    +0.000 A 
ATOM     11  C   UNL     1      -1.388 -36.804  -9.311  0.00  0.00    +0.000 A 
BRANCH   9  12
ATOM     12  O   UNL     1      -3.997 -32.041  -6.449  0.00  0.00    +0.000 OA
ATOM     13  H   UNL     1      -3.309 -31.561  -5.953  0.00  0.00    +0.000 HD
ENDBRANCH   9  12
ENDBRANCH   1   2
BRANCH   1  14
ATOM     14  S   UNL     1      -5.442 -35.346  -5.957  0.00  0.00    +0.000 S 
BRANCH  14  15
ATOM     15  C   UNL     1      -6.112 -34.806  -4.378  0.00  0.00    +0.000 A 
ATOM     16  C   UNL     1      -6.145 -35.675  -3.261  0.00  0.00    +0.000 A 
ATOM     17  C   UNL     1      -6.657 -35.194  -2.033  0.00  0.00    +0.000 A 
ATOM     18  C   UNL     1      -5.682 -37.003  -3.296  0.00  0.00    +0.000 A 
ATOM     19  C   UNL     1      -7.137 -33.892  -1.930  0.00  0.00    +0.000 A 
ATOM     20  C   UNL     1      -6.685 -36.015  -0.906  0.00  0.00    +0.000 A 
ATOM     21  C   UNL     1      -7.119 -33.044  -3.031  0.00  0.00    +0.000 A 
ATOM     22  C   UNL     1      -6.609 -33.499  -4.242  0.00  0.00    +0.000 A 
ATOM     23  C   UNL     1      -6.209 -37.322  -0.970  0.00  0.00    +0.000 A 
ATOM     24  C   UNL     1      -5.709 -37.818  -2.168  0.00  0.00    +0.000 A 
BRANCH  22  25
ATOM     25  O   UNL     1      -6.615 -32.604  -5.279  0.00  0.00    +0.000 OA
ATOM     26  H   UNL     1      -6.206 -31.779  -4.960  0.00  0.00    +0.000 HD
ENDBRANCH  22  25
ENDBRANCH  14  15
ENDBRANCH   1  14
TORSDOF 5
ENDMDL
MODEL 3
REMARK VINA RESULT:      -4.9     20.095     22.389
REMARK  Name = IPA3.pdbqt.pdb
REMARK  5 active torsions:
REMARK  status: ('A' for Active; 'I' for Inactive)
REMARK    1  A    between atoms: S_1  and  S_2
REMARK    2  A    between atoms: S_1  and  C_15
REMARK    3  A    between atoms: S_2  and  C_3
REMARK    4  A    between atoms: C_10  and  O_13
REMARK    5  A    between atoms: C_22  and  O_25
REMARK                            x       y       z     vdW  Elec       q    Type
REMARK                         _______ _______ _______ _____ _____    ______ ____
ROOT
ATOM      1  S   UNL     1      -9.348 -30.342 -17.923  0.00  0.00    +0.000 S 
ENDROOT
BRANCH   1   2
ATOM      2  C   UNL     1      -8.894 -29.051 -16.756  0.00  0.00    +0.000 A 
ATOM      3  C   UNL     1      -8.318 -29.367 -15.502  0.00  0.00    +0.000 A 
ATOM      4  C   UNL     1      -7.953 -28.314 -14.631  0.00  0.00    +0.000 A 
ATOM      5  C   UNL     1      -8.072 -30.682 -15.069  0.00  0.00    +0.000 A 
ATOM      6  C   UNL     1      -8.172 -26.988 -14.994  0.00  0.00    +0.000 A 
ATOM      7  C   UNL     1      -7.361 -28.587 -13.398  0.00  0.00    +0.000 A 
ATOM      8  C   UNL     1      -8.753 -26.680 -16.218  0.00  0.00    +0.000 A 
ATOM      9  C   UNL     1      -9.108 -27.704 -17.090  0.00  0.00    +0.000 A 
ATOM     10  C   UNL     1      -7.123 -29.900 -13.002  0.00  0.00    +0.000 A 
ATOM     11  C   UNL     1      -7.479 -30.950 -13.838  0.00  0.00    +0.000 A 
BRANCH   9  12
ATOM     12  O   UNL     1      -9.665 -27.324 -18.282  0.00  0.00    +0.000 OA
ATOM     13  H   UNL     1     -10.197 -28.070 -18.612  0.00  0.00    +0.000 HD
ENDBRANCH   9  12
ENDBRANCH   1   2
BRANCH   1  14
ATOM     14  S   UNL     1      -7.742 -30.319 -19.214  0.00  0.00    +0.000 S 
BRANCH  14  15
ATOM     15  C   UNL     1      -6.366 -30.588 -18.088  0.00  0.00    +0.000 A 
ATOM     16  C   UNL     1      -5.576 -29.508 -17.628  0.00  0.00    +0.000 A 
ATOM     17  C   UNL     1      -4.521 -29.768 -16.722  0.00  0.00    +0.000 A 
ATOM     18  C   UNL     1      -5.785 -28.171 -18.014  0.00  0.00    +0.000 A 
ATOM     19  C   UNL     1      -4.255 -31.068 -16.302  0.00  0.00    +0.000 A 
ATOM     20  C   UNL     1      -3.736 -28.726 -16.229  0.00  0.00    +0.000 A 
ATOM     21  C   UNL     1      -5.022 -32.130 -16.767  0.00  0.00    +0.000 A 
ATOM     22  C   UNL     1      -6.068 -31.889 -17.650  0.00  0.00    +0.000 A 
ATOM     23  C   UNL     1      -3.975 -27.412 -16.623  0.00  0.00    +0.000 A 
ATOM     24  C   UNL     1      -5.000 -27.134 -17.519  0.00  0.00    +0.000 A 
BRANCH  22  25
ATOM     25  O   UNL     1      -6.785 -32.983 -18.057  0.00  0.00    +0.000 OA
ATOM     26  H   UNL     1      -6.273 -33.778 -17.818  0.00  0.00    +0.000 HD
ENDBRANCH  22  25
ENDBRANCH  14  15
ENDBRANCH   1  14
TORSDOF 5
ENDMDL
MODEL 4
REMARK VINA RESULT:      -4.8      2.348      6.055
REMARK  Name = IPA3.pdbqt.pdb
REMARK  5 active torsions:
REMARK  status: ('A' for Active; 'I' for Inactive)
REMARK    1  A    between atoms: S_1  and  S_2
REMARK    2  A    between atoms: S_1  and  C_15
REMARK    3  A    between atoms: S_2  and  C_3
REMARK    4  A    between atoms: C_10  and  O_13
REMARK    5  A    between atoms: C_22  and  O_25
REMARK                            x       y       z     vdW  Elec       q    Type
REMARK                         _______ _______ _______ _____ _____    ______ ____
ROOT
ATOM      1  S   UNL     1      -1.295 -15.890   1.726  0.00  0.00    +0.000 S 
ENDROOT
BRANCH   1   2
ATOM      2  C   UNL     1      -2.384 -17.288   1.420  0.00  0.00    +0.000 A 
ATOM      3  C   UNL     1      -1.863 -18.565   1.099  0.00  0.00    +0.000 A 
ATOM      4  C   UNL     1      -2.760 -19.640   0.895  0.00  0.00    +0.000 A 
ATOM      5  C   UNL     1      -0.488 -18.837   0.983  0.00  0.00    +0.000 A 
ATOM      6  C   UNL     1      -4.135 -19.441   0.991  0.00  0.00    +0.000 A 
ATOM      7  C   UNL     1      -2.282 -20.917   0.602  0.00  0.00    +0.000 A 
ATOM      8  C   UNL     1      -4.645 -18.184   1.289  0.00  0.00    +0.000 A 
ATOM      9  C   UNL     1      -3.775 -17.119   1.503  0.00  0.00    +0.000 A 
ATOM     10  C   UNL     1      -0.915 -21.155   0.502  0.00  0.00    +0.000 A 
ATOM     11  C   UNL     1      -0.015 -20.114   0.691  0.00  0.00    +0.000 A 
BRANCH   9  12
ATOM     12  O   UNL     1      -4.351 -15.912   1.803  0.00  0.00    +0.000 OA
ATOM     13  H   UNL     1      -3.891 -15.550   2.582  0.00  0.00    +0.000 HD
ENDBRANCH   9  12
ENDBRANCH   1   2
BRANCH   1  14
ATOM     14  S   UNL     1      -0.578 -15.499  -0.166  0.00  0.00    +0.000 S 
BRANCH  14  15
ATOM     15  C   UNL     1      -2.098 -15.439  -1.126  0.00  0.00    +0.000 A 
ATOM     16  C   UNL     1      -3.010 -14.366  -0.985  0.00  0.00    +0.000 A 
ATOM     17  C   UNL     1      -4.178 -14.351  -1.783  0.00  0.00    +0.000 A 
ATOM     18  C   UNL     1      -2.818 -13.293  -0.097  0.00  0.00    +0.000 A 
ATOM     19  C   UNL     1      -4.435 -15.384  -2.680  0.00  0.00    +0.000 A 
ATOM     20  C   UNL     1      -5.089 -13.299  -1.688  0.00  0.00    +0.000 A 
ATOM     21  C   UNL     1      -3.546 -16.445  -2.806  0.00  0.00    +0.000 A 
ATOM     22  C   UNL     1      -2.389 -16.469  -2.036  0.00  0.00    +0.000 A 
ATOM     23  C   UNL     1      -4.864 -12.245  -0.806  0.00  0.00    +0.000 A 
ATOM     24  C   UNL     1      -3.728 -12.243  -0.006  0.00  0.00    +0.000 A 
BRANCH  22  25
ATOM     25  O   UNL     1      -1.556 -17.540  -2.221  0.00  0.00    +0.000 OA
ATOM     26  H   UNL     1      -1.264 -17.844  -1.342  0.00  0.00    +0.000 HD
ENDBRANCH  22  25
ENDBRANCH  14  15
ENDBRANCH   1  14
TORSDOF 5
ENDMDL
MODEL 5
REMARK VINA RESULT:      -4.7      2.566      5.888
REMARK  Name = IPA3.pdbqt.pdb
REMARK  5 active torsions:
REMARK  status: ('A' for Active; 'I' for Inactive)
REMARK    1  A    between atoms: S_1  and  S_2
REMARK    2  A    between atoms: S_1  and  C_15
REMARK    3  A    between atoms: S_2  and  C_3
REMARK    4  A    between atoms: C_10  and  O_13
REMARK    5  A    between atoms: C_22  and  O_25
REMARK                            x       y       z     vdW  Elec       q    Type
REMARK                         _______ _______ _______ _____ _____    ______ ____
ROOT
ATOM      1  S   UNL     1      -2.743 -15.246   3.078  0.00  0.00    +0.000 S 
ENDROOT
BRANCH   1   2
ATOM      2  C   UNL     1      -3.579 -16.576   2.200  0.00  0.00    +0.000 A 
ATOM      3  C   UNL     1      -2.892 -17.761   1.842  0.00  0.00    +0.000 A 
ATOM      4  C   UNL     1      -3.602 -18.789   1.177  0.00  0.00    +0.000 A 
ATOM      5  C   UNL     1      -1.533 -17.987   2.122  0.00  0.00    +0.000 A 
ATOM      6  C   UNL     1      -4.950 -18.630   0.865  0.00  0.00    +0.000 A 
ATOM      7  C   UNL     1      -2.965 -19.980   0.830  0.00  0.00    +0.000 A 
ATOM      8  C   UNL     1      -5.617 -17.460   1.203  0.00  0.00    +0.000 A 
ATOM      9  C   UNL     1      -4.937 -16.444   1.866  0.00  0.00    +0.000 A 
ATOM     10  C   UNL     1      -1.620 -20.176   1.129  0.00  0.00    +0.000 A 
ATOM     11  C   UNL     1      -0.901 -19.179   1.775  0.00  0.00    +0.000 A 
BRANCH   9  12
ATOM     12  O   UNL     1      -5.663 -15.324   2.175  0.00  0.00    +0.000 OA
ATOM     13  H   UNL     1      -5.878 -15.363   3.125  0.00  0.00    +0.000 HD
ENDBRANCH   9  12
ENDBRANCH   1   2
BRANCH   1  14
ATOM     14  S   UNL     1      -1.627 -14.391   1.572  0.00  0.00    +0.000 S 
BRANCH  14  15
ATOM     15  C   UNL     1      -2.885 -14.054   0.333  0.00  0.00    +0.000 A 
ATOM     16  C   UNL     1      -3.047 -14.896  -0.793  0.00  0.00    +0.000 A 
ATOM     17  C   UNL     1      -4.070 -14.604  -1.726  0.00  0.00    +0.000 A 
ATOM     18  C   UNL     1      -2.250 -16.029  -1.038  0.00  0.00    +0.000 A 
ATOM     19  C   UNL     1      -4.892 -13.495  -1.548  0.00  0.00    +0.000 A 
ATOM     20  C   UNL     1      -4.274 -15.424  -2.835  0.00  0.00    +0.000 A 
ATOM     21  C   UNL     1      -4.722 -12.660  -0.451  0.00  0.00    +0.000 A 
ATOM     22  C   UNL     1      -3.728 -12.940   0.480  0.00  0.00    +0.000 A 
ATOM     23  C   UNL     1      -3.474 -16.545  -3.044  0.00  0.00    +0.000 A 
ATOM     24  C   UNL     1      -2.459 -16.847  -2.145  0.00  0.00    +0.000 A 
BRANCH  22  25
ATOM     25  O   UNL     1      -3.626 -12.078   1.540  0.00  0.00    +0.000 OA
ATOM     26  H   UNL     1      -4.521 -11.951   1.905  0.00  0.00    +0.000 HD
ENDBRANCH  22  25
ENDBRANCH  14  15
ENDBRANCH   1  14
TORSDOF 5
ENDMDL
MODEL 6
REMARK VINA RESULT:      -4.7     20.088     22.311
REMARK  Name = IPA3.pdbqt.pdb
REMARK  5 active torsions:
REMARK  status: ('A' for Active; 'I' for Inactive)
REMARK    1  A    between atoms: S_1  and  S_2
REMARK    2  A    between atoms: S_1  and  C_15
REMARK    3  A    between atoms: S_2  and  C_3
REMARK    4  A    between atoms: C_10  and  O_13
REMARK    5  A    between atoms: C_22  and  O_25
REMARK                            x       y       z     vdW  Elec       q    Type
REMARK                         _______ _______ _______ _____ _____    ______ ____
ROOT
ATOM      1  S   UNL     1      -7.742 -29.279 -19.525  0.00  0.00    +0.000 S 
ENDROOT
BRANCH   1   2
ATOM      2  C   UNL     1      -6.415 -30.053 -18.589  0.00  0.00    +0.000 A 
ATOM      3  C   UNL     1      -5.501 -29.277 -17.837  0.00  0.00    +0.000 A 
ATOM      4  C   UNL     1      -4.492 -29.935 -17.095  0.00  0.00    +0.000 A 
ATOM      5  C   UNL     1      -5.543 -27.873 -17.771  0.00  0.00    +0.000 A 
ATOM      6  C   UNL     1      -4.389 -31.324 -17.118  0.00  0.00    +0.000 A 
ATOM      7  C   UNL     1      -3.588 -29.205 -16.324  0.00  0.00    +0.000 A 
ATOM      8  C   UNL     1      -5.277 -32.082 -17.870  0.00  0.00    +0.000 A 
ATOM      9  C   UNL     1      -6.282 -31.451 -18.596  0.00  0.00    +0.000 A 
ATOM     10  C   UNL     1      -3.662 -27.816 -16.273  0.00  0.00    +0.000 A 
ATOM     11  C   UNL     1      -4.640 -27.148 -16.998  0.00  0.00    +0.000 A 
BRANCH   9  12
ATOM     12  O   UNL     1      -7.125 -32.264 -19.305  0.00  0.00    +0.000 OA
ATOM     13  H   UNL     1      -6.669 -33.113 -19.448  0.00  0.00    +0.000 HD
ENDBRANCH   9  12
ENDBRANCH   1   2
BRANCH   1  14
ATOM     14  S   UNL     1      -9.348 -29.534 -18.260  0.00  0.00    +0.000 S 
BRANCH  14  15
ATOM     15  C   UNL     1      -8.829 -28.594 -16.818  0.00  0.00    +0.000 A 
ATOM     16  C   UNL     1      -8.283 -29.238 -15.682  0.00  0.00    +0.000 A 
ATOM     17  C   UNL     1      -7.863 -28.452 -14.583  0.00  0.00    +0.000 A 
ATOM     18  C   UNL     1      -8.119 -30.632 -15.582  0.00  0.00    +0.000 A 
ATOM     19  C   UNL     1      -8.001 -27.067 -14.612  0.00  0.00    +0.000 A 
ATOM     20  C   UNL     1      -7.300 -29.050 -13.456  0.00  0.00    +0.000 A 
ATOM     21  C   UNL     1      -8.552 -26.437 -15.722  0.00  0.00    +0.000 A 
ATOM     22  C   UNL     1      -8.959 -27.196 -16.813  0.00  0.00    +0.000 A 
ATOM     23  C   UNL     1      -7.142 -30.432 -13.393  0.00  0.00    +0.000 A 
ATOM     24  C   UNL     1      -7.554 -31.225 -14.456  0.00  0.00    +0.000 A 
BRANCH  22  25
ATOM     25  O   UNL     1      -9.483 -26.504 -17.874  0.00  0.00    +0.000 OA
ATOM     26  H   UNL     1      -9.102 -25.607 -17.859  0.00  0.00    +0.000 HD
ENDBRANCH  22  25
ENDBRANCH  14  15
ENDBRANCH   1  14
TORSDOF 5
ENDMDL
MODEL 7
REMARK VINA RESULT:      -4.6     20.216     22.200
REMARK  Name = IPA3.pdbqt.pdb
REMARK  5 active torsions:
REMARK  status: ('A' for Active; 'I' for Inactive)
REMARK    1  A    between atoms: S_1  and  S_2
REMARK    2  A    between atoms: S_1  and  C_15
REMARK    3  A    between atoms: S_2  and  C_3
REMARK    4  A    between atoms: C_10  and  O_13
REMARK    5  A    between atoms: C_22  and  O_25
REMARK                            x       y       z     vdW  Elec       q    Type
REMARK                         _______ _______ _______ _____ _____    ______ ____
ROOT
ATOM      1  S   UNL     1      -9.155 -29.650 -19.283  0.00  0.00    +0.000 S 
ENDROOT
BRANCH   1   2
ATOM      2  C   UNL     1      -7.934 -28.342 -19.465  0.00  0.00    +0.000 A 
ATOM      3  C   UNL     1      -8.176 -27.040 -18.965  0.00  0.00    +0.000 A 
ATOM      4  C   UNL     1      -7.172 -26.054 -19.109  0.00  0.00    +0.000 A 
ATOM      5  C   UNL     1      -9.364 -26.666 -18.314  0.00  0.00    +0.000 A 
ATOM      6  C   UNL     1      -5.971 -26.354 -19.748  0.00  0.00    +0.000 A 
ATOM      7  C   UNL     1      -7.365 -24.767 -18.608  0.00  0.00    +0.000 A 
ATOM      8  C   UNL     1      -5.743 -27.628 -20.252  0.00  0.00    +0.000 A 
ATOM      9  C   UNL     1      -6.716 -28.612 -20.109  0.00  0.00    +0.000 A 
ATOM     10  C   UNL     1      -8.551 -24.430 -17.961  0.00  0.00    +0.000 A 
ATOM     11  C   UNL     1      -9.553 -25.380 -17.814  0.00  0.00    +0.000 A 
BRANCH   9  12
ATOM     12  O   UNL     1      -6.415 -29.846 -20.622  0.00  0.00    +0.000 OA
ATOM     13  H   UNL     1      -6.240 -30.444 -19.873  0.00  0.00    +0.000 HD
ENDBRANCH   9  12
ENDBRANCH   1   2
BRANCH   1  14
ATOM     14  S   UNL     1      -8.376 -30.732 -17.712  0.00  0.00    +0.000 S 
BRANCH  14  15
ATOM     15  C   UNL     1      -8.077 -29.442 -16.495  0.00  0.00    +0.000 A 
ATOM     16  C   UNL     1      -6.772 -28.948 -16.258  0.00  0.00    +0.000 A 
ATOM     17  C   UNL     1      -6.592 -27.913 -15.310  0.00  0.00    +0.000 A 
ATOM     18  C   UNL     1      -5.628 -29.421 -16.926  0.00  0.00    +0.000 A 
ATOM     19  C   UNL     1      -7.680 -27.401 -14.609  0.00  0.00    +0.000 A 
ATOM     20  C   UNL     1      -5.324 -27.386 -15.067  0.00  0.00    +0.000 A 
ATOM     21  C   UNL     1      -8.959 -27.898 -14.831  0.00  0.00    +0.000 A 
ATOM     22  C   UNL     1      -9.152 -28.907 -15.767  0.00  0.00    +0.000 A 
ATOM     23  C   UNL     1      -4.213 -27.870 -15.752  0.00  0.00    +0.000 A 
ATOM     24  C   UNL     1      -4.364 -28.891 -16.682  0.00  0.00    +0.000 A 
BRANCH  22  25
ATOM     25  O   UNL     1     -10.441 -29.339 -15.939  0.00  0.00    +0.000 OA
ATOM     26  H   UNL     1     -10.979 -28.956 -15.222  0.00  0.00    +0.000 HD
ENDBRANCH  22  25
ENDBRANCH  14  15
ENDBRANCH   1  14
TORSDOF 5
ENDMDL
MODEL 8
REMARK VINA RESULT:      -4.6      2.536      5.710
REMARK  Name = IPA3.pdbqt.pdb
REMARK  5 active torsions:
REMARK  status: ('A' for Active; 'I' for Inactive)
REMARK    1  A    between atoms: S_1  and  S_2
REMARK    2  A    between atoms: S_1  and  C_15
REMARK    3  A    between atoms: S_2  and  C_3
REMARK    4  A    between atoms: C_10  and  O_13
REMARK    5  A    between atoms: C_22  and  O_25
REMARK                            x       y       z     vdW  Elec       q    Type
REMARK                         _______ _______ _______ _____ _____    ______ ____
ROOT
ATOM      1  S   UNL     1      -2.626 -14.172   2.878  0.00  0.00    +0.000 S 
ENDROOT
BRANCH   1   2
ATOM      2  C   UNL     1      -2.538 -15.855   2.249  0.00  0.00    +0.000 A 
ATOM      3  C   UNL     1      -3.697 -16.525   1.788  0.00  0.00    +0.000 A 
ATOM      4  C   UNL     1      -3.571 -17.838   1.276  0.00  0.00    +0.000 A 
ATOM      5  C   UNL     1      -4.981 -15.952   1.796  0.00  0.00    +0.000 A 
ATOM      6  C   UNL     1      -2.329 -18.468   1.242  0.00  0.00    +0.000 A 
ATOM      7  C   UNL     1      -4.687 -18.520   0.792  0.00  0.00    +0.000 A 
ATOM      8  C   UNL     1      -1.196 -17.814   1.710  0.00  0.00    +0.000 A 
ATOM      9  C   UNL     1      -1.302 -16.519   2.207  0.00  0.00    +0.000 A 
ATOM     10  C   UNL     1      -5.943 -17.922   0.806  0.00  0.00    +0.000 A 
ATOM     11  C   UNL     1      -6.092 -16.636   1.309  0.00  0.00    +0.000 A 
BRANCH   9  12
ATOM     12  O   UNL     1      -0.141 -15.935   2.640  0.00  0.00    +0.000 OA
ATOM     13  H   UNL     1       0.555 -16.618   2.633  0.00  0.00    +0.000 HD
ENDBRANCH   9  12
ENDBRANCH   1   2
BRANCH   1  14
ATOM     14  S   UNL     1      -1.900 -13.092   1.280  0.00  0.00    +0.000 S 
BRANCH  14  15
ATOM     15  C   UNL     1      -3.259 -13.217   0.109  0.00  0.00    +0.000 A 
ATOM     16  C   UNL     1      -3.250 -14.187  -0.921  0.00  0.00    +0.000 A 
ATOM     17  C   UNL     1      -4.356 -14.264  -1.800  0.00  0.00    +0.000 A 
ATOM     18  C   UNL     1      -2.199 -15.101  -1.119  0.00  0.00    +0.000 A 
ATOM     19  C   UNL     1      -5.428 -13.386  -1.665  0.00  0.00    +0.000 A 
ATOM     20  C   UNL     1      -4.392 -15.222  -2.813  0.00  0.00    +0.000 A 
ATOM     21  C   UNL     1      -5.428 -12.423  -0.662  0.00  0.00    +0.000 A 
ATOM     22  C   UNL     1      -4.353 -12.343   0.216  0.00  0.00    +0.000 A 
ATOM     23  C   UNL     1      -3.340 -16.119  -2.977  0.00  0.00    +0.000 A 
ATOM     24  C   UNL     1      -2.240 -16.058  -2.130  0.00  0.00    +0.000 A 
BRANCH  22  25
ATOM     25  O   UNL     1      -4.429 -11.376   1.183  0.00  0.00    +0.000 OA
ATOM     26  H   UNL     1      -5.309 -11.441   1.598  0.00  0.00    +0.000 HD
ENDBRANCH  22  25
ENDBRANCH  14  15
ENDBRANCH   1  14
TORSDOF 5
ENDMDL
MODEL 9
REMARK VINA RESULT:      -4.5     15.691     16.951
REMARK  Name = IPA3.pdbqt.pdb
REMARK  5 active torsions:
REMARK  status: ('A' for Active; 'I' for Inactive)
REMARK    1  A    between atoms: S_1  and  S_2
REMARK    2  A    between atoms: S_1  and  C_15
REMARK    3  A    between atoms: S_2  and  C_3
REMARK    4  A    between atoms: C_10  and  O_13
REMARK    5  A    between atoms: C_22  and  O_25
REMARK                            x       y       z     vdW  Elec       q    Type
REMARK                         _______ _______ _______ _____ _____    ______ ____
ROOT
ATOM      1  S   UNL     1      -4.312 -14.923 -15.668  0.00  0.00    +0.000 S 
ENDROOT
BRANCH   1   2
ATOM      2  C   UNL     1      -5.770 -14.072 -15.046  0.00  0.00    +0.000 A 
ATOM      3  C   UNL     1      -7.072 -14.564 -15.309  0.00  0.00    +0.000 A 
ATOM      4  C   UNL     1      -8.185 -13.874 -14.773  0.00  0.00    +0.000 A 
ATOM      5  C   UNL     1      -7.328 -15.719 -16.068  0.00  0.00    +0.000 A 
ATOM      6  C   UNL     1      -8.004 -12.720 -14.015  0.00  0.00    +0.000 A 
ATOM      7  C   UNL     1      -9.480 -14.342 -14.991  0.00  0.00    +0.000 A 
ATOM      8  C   UNL     1      -6.727 -12.231 -13.773  0.00  0.00    +0.000 A 
ATOM      9  C   UNL     1      -5.621 -12.903 -14.283  0.00  0.00    +0.000 A 
ATOM     10  C   UNL     1      -9.700 -15.494 -15.741  0.00  0.00    +0.000 A 
ATOM     11  C   UNL     1      -8.623 -16.183 -16.282  0.00  0.00    +0.000 A 
BRANCH   9  12
ATOM     12  O   UNL     1      -4.394 -12.367 -13.994  0.00  0.00    +0.000 OA
ATOM     13  H   UNL     1      -4.350 -12.230 -13.031  0.00  0.00    +0.000 HD
ENDBRANCH   9  12
ENDBRANCH   1   2
BRANCH   1  14
ATOM     14  S   UNL     1      -3.763 -16.055 -14.036  0.00  0.00    +0.000 S 
BRANCH  14  15
ATOM     15  C   UNL     1      -2.911 -17.432 -14.818  0.00  0.00    +0.000 A 
ATOM     16  C   UNL     1      -3.629 -18.460 -15.474  0.00  0.00    +0.000 A 
ATOM     17  C   UNL     1      -2.911 -19.507 -16.098  0.00  0.00    +0.000 A 
ATOM     18  C   UNL     1      -5.033 -18.499 -15.553  0.00  0.00    +0.000 A 
ATOM     19  C   UNL     1      -1.520 -19.535 -16.054  0.00  0.00    +0.000 A 
ATOM     20  C   UNL     1      -3.584 -20.526 -16.772  0.00  0.00    +0.000 A 
ATOM     21  C   UNL     1      -0.816 -18.532 -15.397  0.00  0.00    +0.000 A 
ATOM     22  C   UNL     1      -1.508 -17.491 -14.787  0.00  0.00    +0.000 A 
ATOM     23  C   UNL     1      -4.975 -20.530 -16.842  0.00  0.00    +0.000 A 
ATOM     24  C   UNL     1      -5.701 -19.516 -16.229  0.00  0.00    +0.000 A 
BRANCH  22  25
ATOM     25  O   UNL     1      -0.746 -16.535 -14.168  0.00  0.00    +0.000 OA
ATOM     26  H   UNL     1       0.060 -16.970 -13.834  0.00  0.00    +0.000 HD
ENDBRANCH  22  25
ENDBRANCH  14  15
ENDBRANCH   1  14
TORSDOF 5
ENDMDL
