MODEL 1
REMARK VINA RESULT:      -7.6      0.000      0.000
REMARK  Name = 
REMARK  8 active torsions:
REMARK  status: ('A' for Active; 'I' for Inactive)
REMARK    1  A    between atoms: O_1  and  C_21
REMARK    2  A    between atoms: O_1  and  C_38
REMARK    3  A    between atoms: O_4  and  C_26
REMARK    4  A    between atoms: N_7  and  C_11
REMARK    5  A    between atoms: C_26  and  C_33
REMARK    6  A    between atoms: C_29  and  C_37
REMARK    7  A    between atoms: C_33  and  C_42
REMARK    8  A    between atoms: C_37  and  C_43
REMARK                            x       y       z     vdW  Elec       q    Type
REMARK                         _______ _______ _______ _____ _____    ______ ____
ROOT
ATOM      1  O   UNL     1     -11.054 -14.239 -15.111  0.00  0.00    +0.000 OA
ATOM      2  O   UNL     1      -9.285 -17.850 -16.369  0.00  0.00    +0.000 OA
ATOM      3  O   UNL     1     -10.733 -12.580 -13.629  0.00  0.00    +0.000 OA
ATOM      4  N   UNL     1      -7.187 -17.119 -15.795  0.00  0.00    +0.000 N 
ATOM      5  N   UNL     1      -3.890 -15.983 -14.954  0.00  0.00    +0.000 NA
ATOM      6  C   UNL     1      -6.343 -16.120 -15.354  0.00  0.00    +0.000 A 
ATOM      7  C   UNL     1      -5.035 -17.978 -15.737  0.00  0.00    +0.000 A 
ATOM      8  C   UNL     1      -6.450 -18.356 -16.068  0.00  0.00    +0.000 C 
ATOM      9  C   UNL     1      -8.236 -14.639 -15.177  0.00  0.00    +0.000 A 
ATOM     10  C   UNL     1      -8.777 -13.264 -14.878  0.00  0.00    +0.000 C 
ATOM     11  C   UNL     1      -4.986 -16.654 -15.317  0.00  0.00    +0.000 A 
ATOM     12  C   UNL     1      -9.066 -15.610 -15.607  0.00  0.00    +0.000 A 
ATOM     13  C   UNL     1      -3.860 -18.715 -15.795  0.00  0.00    +0.000 A 
ATOM     14  C   UNL     1      -6.807 -14.905 -15.046  0.00  0.00    +0.000 A 
ATOM     15  C   UNL     1      -8.539 -16.967 -15.959  0.00  0.00    +0.000 A 
ATOM     16  C   UNL     1      -2.658 -18.041 -15.431  0.00  0.00    +0.000 A 
ATOM     17  C   UNL     1     -10.530 -15.405 -15.779  0.00  0.00    +0.000 C 
ATOM     18  C   UNL     1      -2.741 -16.673 -15.015  0.00  0.00    +0.000 A 
ATOM     19  C   UNL     1     -10.265 -13.350 -14.470  0.00  0.00    +0.000 C 
ATOM     20  C   UNL     1      -0.245 -17.936 -15.105  0.00  0.00    +0.000 A 
ATOM     21  C   UNL     1      -1.386 -18.653 -15.461  0.00  0.00    +0.000 A 
ATOM     22  C   UNL     1      -1.580 -16.004 -14.648  0.00  0.00    +0.000 A 
ATOM     23  C   UNL     1      -0.329 -16.620 -14.680  0.00  0.00    +0.000 A 
ENDROOT
BRANCH  10  24
ATOM     24  O   UNL     1      -8.039 -12.707 -13.781  0.00  0.00    +0.000 OA
ATOM     25  H   UNL     1      -7.216 -12.342 -14.163  0.00  0.00    +0.000 HD
ENDBRANCH  10  24
BRANCH  10  26
ATOM     26  C   UNL     1      -8.620 -12.343 -16.107  0.00  0.00    +0.000 C 
ATOM     27  C   UNL     1      -8.601 -10.852 -15.782  0.00  0.00    +0.000 C 
ENDBRANCH  10  26
BRANCH  13  28
ATOM     28  C   UNL     1      -3.896 -20.150 -16.261  0.00  0.00    +0.000 C 
ATOM     29  C   UNL     1      -3.768 -20.265 -17.773  0.00  0.00    +0.000 C 
ENDBRANCH  13  28
BRANCH  20  30
ATOM     30  O   UNL     1       0.991 -18.582 -15.103  0.00  0.00    +0.000 OA
BRANCH  30  38
ATOM     31  O   UNL     1       0.647 -20.124 -13.410  0.00  0.00    +0.000 OA
ATOM     32  N   UNL     1       2.426 -18.666 -13.293  0.00  0.00    +0.000 N 
ATOM     33  C   UNL     1       4.069 -17.005 -11.533  0.00  0.00    +0.000 C 
ATOM     34  C   UNL     1       3.487 -16.492 -12.873  0.00  0.00    +0.000 C 
ATOM     35  C   UNL     1       3.158 -18.144 -11.009  0.00  0.00    +0.000 C 
ATOM     36  C   UNL     1       3.243 -17.616 -13.876  0.00  0.00    +0.000 C 
ATOM     37  C   UNL     1       2.924 -19.231 -12.054  0.00  0.00    +0.000 C 
ATOM     38  C   UNL     1       1.299 -19.205 -13.897  0.00  0.00    +0.000 C 
BRANCH  33  39
ATOM     39  N   UNL     1       4.218 -15.905 -10.527  0.00  0.00    +0.000 NA
ATOM     40  C   UNL     1       2.946 -15.188 -10.296  0.00  0.00    +0.000 C 
ATOM     41  C   UNL     1       4.761 -16.393  -9.242  0.00  0.00    +0.000 C 
ATOM     42  C   UNL     1       3.085 -14.040  -9.294  0.00  0.00    +0.000 C 
ATOM     43  C   UNL     1       4.944 -15.276  -8.212  0.00  0.00    +0.000 C 
ATOM     44  C   UNL     1       3.648 -14.524  -7.969  0.00  0.00    +0.000 C 
ENDBRANCH  33  39
ENDBRANCH  30  38
ENDBRANCH  20  30
TORSDOF 6
ENDMDL
MODEL 2
REMARK VINA RESULT:      -6.7      3.201     11.140
REMARK  Name = 
REMARK  8 active torsions:
REMARK  status: ('A' for Active; 'I' for Inactive)
REMARK    1  A    between atoms: O_1  and  C_21
REMARK    2  A    between atoms: O_1  and  C_38
REMARK    3  A    between atoms: O_4  and  C_26
REMARK    4  A    between atoms: N_7  and  C_11
REMARK    5  A    between atoms: C_26  and  C_33
REMARK    6  A    between atoms: C_29  and  C_37
REMARK    7  A    between atoms: C_33  and  C_42
REMARK    8  A    between atoms: C_37  and  C_43
REMARK                            x       y       z     vdW  Elec       q    Type
REMARK                         _______ _______ _______ _____ _____    ______ ____
ROOT
ATOM      1  O   UNL     1       4.899 -18.738 -10.529  0.00  0.00    +0.000 OA
ATOM      2  O   UNL     1       2.076 -15.866 -11.769  0.00  0.00    +0.000 OA
ATOM      3  O   UNL     1       5.075 -20.951 -10.180  0.00  0.00    +0.000 OA
ATOM      4  N   UNL     1       0.967 -17.396 -13.070  0.00  0.00    +0.000 N 
ATOM      5  N   UNL     1      -0.757 -19.755 -15.152  0.00  0.00    +0.000 NA
ATOM      6  C   UNL     1       0.872 -18.657 -13.623  0.00  0.00    +0.000 A 
ATOM      7  C   UNL     1      -0.949 -17.461 -14.373  0.00  0.00    +0.000 A 
ATOM      8  C   UNL     1      -0.153 -16.548 -13.486  0.00  0.00    +0.000 C 
ATOM      9  C   UNL     1       2.913 -19.271 -12.499  0.00  0.00    +0.000 A 
ATOM     10  C   UNL     1       3.988 -20.297 -12.240  0.00  0.00    +0.000 C 
ATOM     11  C   UNL     1      -0.332 -18.704 -14.446  0.00  0.00    +0.000 A 
ATOM     12  C   UNL     1       3.012 -18.042 -11.956  0.00  0.00    +0.000 A 
ATOM     13  C   UNL     1      -2.124 -17.246 -15.079  0.00  0.00    +0.000 A 
ATOM     14  C   UNL     1       1.792 -19.595 -13.374  0.00  0.00    +0.000 A 
ATOM     15  C   UNL     1       1.983 -16.993 -12.244  0.00  0.00    +0.000 A 
ATOM     16  C   UNL     1      -2.614 -18.331 -15.862  0.00  0.00    +0.000 A 
ATOM     17  C   UNL     1       4.136 -17.638 -11.067  0.00  0.00    +0.000 C 
ATOM     18  C   UNL     1      -1.885 -19.564 -15.853  0.00  0.00    +0.000 A 
ATOM     19  C   UNL     1       4.678 -20.021 -10.885  0.00  0.00    +0.000 C 
ATOM     20  C   UNL     1      -4.204 -19.349 -17.403  0.00  0.00    +0.000 A 
ATOM     21  C   UNL     1      -3.784 -18.255 -16.649  0.00  0.00    +0.000 A 
ATOM     22  C   UNL     1      -2.354 -20.635 -16.603  0.00  0.00    +0.000 A 
ATOM     23  C   UNL     1      -3.512 -20.548 -17.376  0.00  0.00    +0.000 A 
ENDROOT
BRANCH  10  24
ATOM     24  O   UNL     1       3.380 -21.596 -12.182  0.00  0.00    +0.000 OA
ATOM     25  H   UNL     1       3.577 -21.949 -11.291  0.00  0.00    +0.000 HD
ENDBRANCH  10  24
BRANCH  10  26
ATOM     26  C   UNL     1       5.033 -20.284 -13.376  0.00  0.00    +0.000 C 
ATOM     27  C   UNL     1       5.279 -21.642 -14.026  0.00  0.00    +0.000 C 
ENDBRANCH  10  26
BRANCH  13  28
ATOM     28  C   UNL     1      -2.799 -15.897 -15.020  0.00  0.00    +0.000 C 
ATOM     29  C   UNL     1      -3.923 -15.862 -13.995  0.00  0.00    +0.000 C 
ENDBRANCH  13  28
BRANCH  20  30
ATOM     30  O   UNL     1      -5.388 -19.255 -18.136  0.00  0.00    +0.000 OA
BRANCH  30  38
ATOM     31  O   UNL     1      -4.955 -17.577 -19.673  0.00  0.00    +0.000 OA
ATOM     32  N   UNL     1      -6.599 -17.288 -18.087  0.00  0.00    +0.000 N 
ATOM     33  C   UNL     1      -7.900 -15.388 -16.282  0.00  0.00    +0.000 C 
ATOM     34  C   UNL     1      -7.446 -16.800 -15.834  0.00  0.00    +0.000 C 
ATOM     35  C   UNL     1      -7.016 -14.947 -17.476  0.00  0.00    +0.000 C 
ATOM     36  C   UNL     1      -7.404 -17.796 -16.989  0.00  0.00    +0.000 C 
ATOM     37  C   UNL     1      -6.986 -15.985 -18.594  0.00  0.00    +0.000 C 
ATOM     38  C   UNL     1      -5.593 -18.006 -18.716  0.00  0.00    +0.000 C 
BRANCH  33  39
ATOM     39  N   UNL     1      -7.850 -14.399 -15.159  0.00  0.00    +0.000 NA
ATOM     40  C   UNL     1      -6.583 -13.636 -15.147  0.00  0.00    +0.000 C 
ATOM     41  C   UNL     1      -8.997 -13.467 -15.183  0.00  0.00    +0.000 C 
ATOM     42  C   UNL     1      -6.500 -12.641 -13.987  0.00  0.00    +0.000 C 
ATOM     43  C   UNL     1      -8.975 -12.467 -14.025  0.00  0.00    +0.000 C 
ATOM     44  C   UNL     1      -7.676 -11.680 -13.993  0.00  0.00    +0.000 C 
ENDBRANCH  33  39
ENDBRANCH  30  38
ENDBRANCH  20  30
TORSDOF 6
ENDMDL
MODEL 3
REMARK VINA RESULT:      -6.7      3.602     12.809
REMARK  Name = 
REMARK  8 active torsions:
REMARK  status: ('A' for Active; 'I' for Inactive)
REMARK    1  A    between atoms: O_1  and  C_21
REMARK    2  A    between atoms: O_1  and  C_38
REMARK    3  A    between atoms: O_4  and  C_26
REMARK    4  A    between atoms: N_7  and  C_11
REMARK    5  A    between atoms: C_26  and  C_33
REMARK    6  A    between atoms: C_29  and  C_37
REMARK    7  A    between atoms: C_33  and  C_42
REMARK    8  A    between atoms: C_37  and  C_43
REMARK                            x       y       z     vdW  Elec       q    Type
REMARK                         _______ _______ _______ _____ _____    ______ ____
ROOT
ATOM      1  O   UNL     1      -0.440 -19.707 -15.764  0.00  0.00    +0.000 OA
ATOM      2  O   UNL     1      -4.579 -20.442 -16.049  0.00  0.00    +0.000 OA
ATOM      3  O   UNL     1       1.065 -18.100 -16.211  0.00  0.00    +0.000 OA
ATOM      4  N   UNL     1      -5.075 -18.212 -15.825  0.00  0.00    +0.000 N 
ATOM      5  N   UNL     1      -5.881 -14.740 -15.427  0.00  0.00    +0.000 NA
ATOM      6  C   UNL     1      -4.677 -16.912 -15.586  0.00  0.00    +0.000 A 
ATOM      7  C   UNL     1      -6.961 -16.866 -15.890  0.00  0.00    +0.000 A 
ATOM      8  C   UNL     1      -6.523 -18.295 -16.035  0.00  0.00    +0.000 C 
ATOM      9  C   UNL     1      -2.401 -17.676 -15.387  0.00  0.00    +0.000 A 
ATOM     10  C   UNL     1      -0.954 -17.365 -15.099  0.00  0.00    +0.000 C 
ATOM     11  C   UNL     1      -5.861 -16.060 -15.624  0.00  0.00    +0.000 A 
ATOM     12  C   UNL     1      -2.782 -18.948 -15.619  0.00  0.00    +0.000 A 
ATOM     13  C   UNL     1      -8.220 -16.289 -15.973  0.00  0.00    +0.000 A 
ATOM     14  C   UNL     1      -3.394 -16.608 -15.368  0.00  0.00    +0.000 A 
ATOM     15  C   UNL     1      -4.222 -19.284 -15.856  0.00  0.00    +0.000 A 
ATOM     16  C   UNL     1      -8.300 -14.883 -15.756  0.00  0.00    +0.000 A 
ATOM     17  C   UNL     1      -1.826 -20.088 -15.638  0.00  0.00    +0.000 C 
ATOM     18  C   UNL     1      -7.090 -14.162 -15.490  0.00  0.00    +0.000 A 
ATOM     19  C   UNL     1      -0.036 -18.419 -15.760  0.00  0.00    +0.000 C 
ATOM     20  C   UNL     1      -9.526 -12.786 -15.554  0.00  0.00    +0.000 A 
ATOM     21  C   UNL     1      -9.513 -14.160 -15.788  0.00  0.00    +0.000 A 
ATOM     22  C   UNL     1      -7.150 -12.789 -15.285  0.00  0.00    +0.000 A 
ATOM     23  C   UNL     1      -8.354 -12.087 -15.321  0.00  0.00    +0.000 A 
ENDROOT
BRANCH  10  24
ATOM     24  O   UNL     1      -0.639 -16.080 -15.654  0.00  0.00    +0.000 OA
ATOM     25  H   UNL     1      -0.628 -16.198 -16.625  0.00  0.00    +0.000 HD
ENDBRANCH  10  24
BRANCH  10  26
ATOM     26  C   UNL     1      -0.702 -17.329 -13.576  0.00  0.00    +0.000 C 
ATOM     27  C   UNL     1       0.708 -17.738 -13.158  0.00  0.00    +0.000 C 
ENDBRANCH  10  26
BRANCH  13  28
ATOM     28  C   UNL     1      -9.426 -17.154 -16.249  0.00  0.00    +0.000 C 
ATOM     29  C   UNL     1      -9.668 -17.343 -17.738  0.00  0.00    +0.000 C 
ENDBRANCH  13  28
BRANCH  20  30
ATOM     30  O   UNL     1     -10.735 -12.094 -15.636  0.00  0.00    +0.000 OA
BRANCH  30  38
ATOM     31  O   UNL     1     -11.007 -12.110 -13.336  0.00  0.00    +0.000 OA
ATOM     32  N   UNL     1     -12.850 -12.221 -14.713  0.00  0.00    +0.000 N 
ATOM     33  C   UNL     1     -15.503 -13.393 -15.100  0.00  0.00    +0.000 C 
ATOM     34  C   UNL     1     -14.429 -13.350 -16.217  0.00  0.00    +0.000 C 
ATOM     35  C   UNL     1     -14.781 -13.373 -13.729  0.00  0.00    +0.000 C 
ATOM     36  C   UNL     1     -13.443 -12.199 -16.039  0.00  0.00    +0.000 C 
ATOM     37  C   UNL     1     -13.789 -12.220 -13.608  0.00  0.00    +0.000 C 
ATOM     38  C   UNL     1     -11.487 -12.137 -14.466  0.00  0.00    +0.000 C 
BRANCH  33  39
ATOM     39  N   UNL     1     -16.408 -14.578 -15.235  0.00  0.00    +0.000 NA
ATOM     40  C   UNL     1     -15.703 -15.755 -15.786  0.00  0.00    +0.000 C 
ATOM     41  C   UNL     1     -17.058 -14.933 -13.957  0.00  0.00    +0.000 C 
ATOM     42  C   UNL     1     -16.619 -16.968 -15.960  0.00  0.00    +0.000 C 
ATOM     43  C   UNL     1     -18.007 -16.127 -14.084  0.00  0.00    +0.000 C 
ATOM     44  C   UNL     1     -17.300 -17.343 -14.656  0.00  0.00    +0.000 C 
ENDBRANCH  33  39
ENDBRANCH  30  38
ENDBRANCH  20  30
TORSDOF 6
ENDMDL
MODEL 4
REMARK VINA RESULT:      -6.5      4.836      7.570
REMARK  Name = 
REMARK  8 active torsions:
REMARK  status: ('A' for Active; 'I' for Inactive)
REMARK    1  A    between atoms: O_1  and  C_21
REMARK    2  A    between atoms: O_1  and  C_38
REMARK    3  A    between atoms: O_4  and  C_26
REMARK    4  A    between atoms: N_7  and  C_11
REMARK    5  A    between atoms: C_26  and  C_33
REMARK    6  A    between atoms: C_29  and  C_37
REMARK    7  A    between atoms: C_33  and  C_42
REMARK    8  A    between atoms: C_37  and  C_43
REMARK                            x       y       z     vdW  Elec       q    Type
REMARK                         _______ _______ _______ _____ _____    ______ ____
ROOT
ATOM      1  O   UNL     1     -15.375 -11.506 -13.364  0.00  0.00    +0.000 OA
ATOM      2  O   UNL     1     -13.298 -14.387 -15.631  0.00  0.00    +0.000 OA
ATOM      3  O   UNL     1     -15.146 -10.288 -11.490  0.00  0.00    +0.000 OA
ATOM      4  N   UNL     1     -11.262 -13.584 -14.941  0.00  0.00    +0.000 N 
ATOM      5  N   UNL     1      -8.066 -12.318 -13.918  0.00  0.00    +0.000 NA
ATOM      6  C   UNL     1     -10.508 -12.646 -14.266  0.00  0.00    +0.000 A 
ATOM      7  C   UNL     1      -9.028 -14.150 -15.191  0.00  0.00    +0.000 A 
ATOM      8  C   UNL     1     -10.411 -14.597 -15.570  0.00  0.00    +0.000 C 
ATOM      9  C   UNL     1     -12.539 -11.518 -13.625  0.00  0.00    +0.000 A 
ATOM     10  C   UNL     1     -13.210 -10.355 -12.939  0.00  0.00    +0.000 C 
ATOM     11  C   UNL     1      -9.101 -12.996 -14.421  0.00  0.00    +0.000 A 
ATOM     12  C   UNL     1     -13.282 -12.430 -14.283  0.00  0.00    +0.000 A 
ATOM     13  C   UNL     1      -7.785 -14.690 -15.487  0.00  0.00    +0.000 A 
ATOM     14  C   UNL     1     -11.085 -11.629 -13.617  0.00  0.00    +0.000 A 
ATOM     15  C   UNL     1     -12.630 -13.563 -15.015  0.00  0.00    +0.000 A 
ATOM     16  C   UNL     1      -6.645 -13.997 -14.987  0.00  0.00    +0.000 A 
ATOM     17  C   UNL     1     -14.767 -12.371 -14.346  0.00  0.00    +0.000 C 
ATOM     18  C   UNL     1      -6.853 -12.815 -14.204  0.00  0.00    +0.000 A 
ATOM     19  C   UNL     1     -14.651 -10.734 -12.526  0.00  0.00    +0.000 C 
ATOM     20  C   UNL     1      -4.243 -13.684 -14.719  0.00  0.00    +0.000 A 
ATOM     21  C   UNL     1      -5.317 -14.414 -15.225  0.00  0.00    +0.000 A 
ATOM     22  C   UNL     1      -5.752 -12.132 -13.702  0.00  0.00    +0.000 A 
ATOM     23  C   UNL     1      -4.445 -12.555 -13.942  0.00  0.00    +0.000 A 
ENDROOT
BRANCH  10  24
ATOM     24  O   UNL     1     -12.471 -10.030 -11.754  0.00  0.00    +0.000 OA
ATOM     25  H   UNL     1     -11.572 -10.392 -11.885  0.00  0.00    +0.000 HD
ENDBRANCH  10  24
BRANCH  10  26
ATOM     26  C   UNL     1     -13.236  -9.121 -13.867  0.00  0.00    +0.000 C 
ATOM     27  C   UNL     1     -12.592  -7.871 -13.276  0.00  0.00    +0.000 C 
ENDBRANCH  10  26
BRANCH  13  28
ATOM     28  C   UNL     1      -7.691 -15.937 -16.333  0.00  0.00    +0.000 C 
ATOM     29  C   UNL     1      -7.706 -17.204 -15.492  0.00  0.00    +0.000 C 
ENDBRANCH  13  28
BRANCH  20  30
ATOM     30  O   UNL     1      -2.944 -14.146 -14.935  0.00  0.00    +0.000 OA
BRANCH  30  38
ATOM     31  O   UNL     1      -2.739 -13.695 -17.197  0.00  0.00    +0.000 OA
ATOM     32  N   UNL     1      -2.350 -15.823 -16.409  0.00  0.00    +0.000 N 
ATOM     33  C   UNL     1      -2.654 -18.685 -16.941  0.00  0.00    +0.000 C 
ATOM     34  C   UNL     1      -3.015 -18.037 -15.580  0.00  0.00    +0.000 C 
ATOM     35  C   UNL     1      -2.780 -17.603 -18.043  0.00  0.00    +0.000 C 
ATOM     36  C   UNL     1      -2.221 -16.762 -15.307  0.00  0.00    +0.000 C 
ATOM     37  C   UNL     1      -1.990 -16.340 -17.715  0.00  0.00    +0.000 C 
ATOM     38  C   UNL     1      -2.681 -14.485 -16.259  0.00  0.00    +0.000 C 
BRANCH  33  39
ATOM     39  N   UNL     1      -3.502 -19.882 -17.236  0.00  0.00    +0.000 NA
ATOM     40  C   UNL     1      -4.944 -19.588 -17.099  0.00  0.00    +0.000 C 
ATOM     41  C   UNL     1      -3.229 -20.444 -18.576  0.00  0.00    +0.000 C 
ATOM     42  C   UNL     1      -5.828 -20.809 -17.367  0.00  0.00    +0.000 C 
ATOM     43  C   UNL     1      -4.070 -21.685 -18.882  0.00  0.00    +0.000 C 
ATOM     44  C   UNL     1      -5.555 -21.402 -18.738  0.00  0.00    +0.000 C 
ENDBRANCH  33  39
ENDBRANCH  30  38
ENDBRANCH  20  30
TORSDOF 6
ENDMDL
MODEL 5
REMARK VINA RESULT:      -6.2      4.296     12.981
REMARK  Name = 
REMARK  8 active torsions:
REMARK  status: ('A' for Active; 'I' for Inactive)
REMARK    1  A    between atoms: O_1  and  C_21
REMARK    2  A    between atoms: O_1  and  C_38
REMARK    3  A    between atoms: O_4  and  C_26
REMARK    4  A    between atoms: N_7  and  C_11
REMARK    5  A    between atoms: C_26  and  C_33
REMARK    6  A    between atoms: C_29  and  C_37
REMARK    7  A    between atoms: C_33  and  C_42
REMARK    8  A    between atoms: C_37  and  C_43
REMARK                            x       y       z     vdW  Elec       q    Type
REMARK                         _______ _______ _______ _____ _____    ______ ____
ROOT
ATOM      1  O   UNL     1      -0.643 -19.987 -15.997  0.00  0.00    +0.000 OA
ATOM      2  O   UNL     1      -4.826 -20.472 -16.131  0.00  0.00    +0.000 OA
ATOM      3  O   UNL     1       0.938 -18.467 -16.488  0.00  0.00    +0.000 OA
ATOM      4  N   UNL     1      -5.180 -18.220 -15.871  0.00  0.00    +0.000 N 
ATOM      5  N   UNL     1      -5.762 -14.710 -15.417  0.00  0.00    +0.000 NA
ATOM      6  C   UNL     1      -4.697 -16.948 -15.638  0.00  0.00    +0.000 A 
ATOM      7  C   UNL     1      -6.983 -16.764 -15.855  0.00  0.00    +0.000 A 
ATOM      8  C   UNL     1      -6.637 -18.215 -16.027  0.00  0.00    +0.000 C 
ATOM      9  C   UNL     1      -2.464 -17.847 -15.531  0.00  0.00    +0.000 A 
ATOM     10  C   UNL     1      -0.991 -17.625 -15.295  0.00  0.00    +0.000 C 
ATOM     11  C   UNL     1      -5.828 -16.027 -15.625  0.00  0.00    +0.000 A 
ATOM     12  C   UNL     1      -2.928 -19.092 -15.758  0.00  0.00    +0.000 A 
ATOM     13  C   UNL     1      -8.208 -16.112 -15.886  0.00  0.00    +0.000 A 
ATOM     14  C   UNL     1      -3.391 -16.723 -15.466  0.00  0.00    +0.000 A 
ATOM     15  C   UNL     1      -4.394 -19.340 -15.942  0.00  0.00    +0.000 A 
ATOM     16  C   UNL     1      -8.196 -14.706 -15.655  0.00  0.00    +0.000 A 
ATOM     17  C   UNL     1      -2.044 -20.287 -15.822  0.00  0.00    +0.000 C 
ATOM     18  C   UNL     1      -6.937 -14.061 -15.430  0.00  0.00    +0.000 A 
ATOM     19  C   UNL     1      -0.163 -18.725 -15.998  0.00  0.00    +0.000 C 
ATOM     20  C   UNL     1      -9.287 -12.542 -15.392  0.00  0.00    +0.000 A 
ATOM     21  C   UNL     1      -9.364 -13.912 -15.636  0.00  0.00    +0.000 A 
ATOM     22  C   UNL     1      -6.906 -12.689 -15.213  0.00  0.00    +0.000 A 
ATOM     23  C   UNL     1      -8.067 -11.916 -15.198  0.00  0.00    +0.000 A 
ENDROOT
BRANCH  10  24
ATOM     24  O   UNL     1      -0.621 -16.356 -15.851  0.00  0.00    +0.000 OA
ATOM     25  H   UNL     1       0.328 -16.424 -16.079  0.00  0.00    +0.000 HD
ENDBRANCH  10  24
BRANCH  10  26
ATOM     26  C   UNL     1      -0.681 -17.619 -13.782  0.00  0.00    +0.000 C 
ATOM     27  C   UNL     1       0.377 -16.604 -13.358  0.00  0.00    +0.000 C 
ENDBRANCH  10  26
BRANCH  13  28
ATOM     28  C   UNL     1      -9.473 -16.902 -16.122  0.00  0.00    +0.000 C 
ATOM     29  C   UNL     1      -9.779 -17.066 -17.603  0.00  0.00    +0.000 C 
ENDBRANCH  13  28
BRANCH  20  30
ATOM     30  O   UNL     1     -10.454 -11.779 -15.423  0.00  0.00    +0.000 OA
BRANCH  30  38
ATOM     31  O   UNL     1     -10.780 -12.186 -13.166  0.00  0.00    +0.000 OA
ATOM     32  N   UNL     1     -11.748 -10.345 -14.155  0.00  0.00    +0.000 N 
ATOM     33  C   UNL     1     -14.114  -8.626 -14.252  0.00  0.00    +0.000 C 
ATOM     34  C   UNL     1     -13.428  -9.189 -15.522  0.00  0.00    +0.000 C 
ATOM     35  C   UNL     1     -13.815  -9.584 -13.072  0.00  0.00    +0.000 C 
ATOM     36  C   UNL     1     -11.947  -9.484 -15.308  0.00  0.00    +0.000 C 
ATOM     37  C   UNL     1     -12.325  -9.868 -12.913  0.00  0.00    +0.000 C 
ATOM     38  C   UNL     1     -10.974 -11.496 -14.163  0.00  0.00    +0.000 C 
BRANCH  33  39
ATOM     39  N   UNL     1     -15.585  -8.426 -14.449  0.00  0.00    +0.000 NA
ATOM     40  C   UNL     1     -16.241  -9.635 -14.991  0.00  0.00    +0.000 C 
ATOM     41  C   UNL     1     -16.262  -8.001 -13.206  0.00  0.00    +0.000 C 
ATOM     42  C   UNL     1     -17.741  -9.441 -15.228  0.00  0.00    +0.000 C 
ATOM     43  C   UNL     1     -17.762  -7.767 -13.397  0.00  0.00    +0.000 C 
ATOM     44  C   UNL     1     -18.451  -8.997 -13.961  0.00  0.00    +0.000 C 
ENDBRANCH  33  39
ENDBRANCH  30  38
ENDBRANCH  20  30
TORSDOF 6
ENDMDL
MODEL 6
REMARK VINA RESULT:      -5.8      5.890      8.831
REMARK  Name = 
REMARK  8 active torsions:
REMARK  status: ('A' for Active; 'I' for Inactive)
REMARK    1  A    between atoms: O_1  and  C_21
REMARK    2  A    between atoms: O_1  and  C_38
REMARK    3  A    between atoms: O_4  and  C_26
REMARK    4  A    between atoms: N_7  and  C_11
REMARK    5  A    between atoms: C_26  and  C_33
REMARK    6  A    between atoms: C_29  and  C_37
REMARK    7  A    between atoms: C_33  and  C_42
REMARK    8  A    between atoms: C_37  and  C_43
REMARK                            x       y       z     vdW  Elec       q    Type
REMARK                         _______ _______ _______ _____ _____    ______ ____
ROOT
ATOM      1  O   UNL     1     -15.192 -10.963 -13.533  0.00  0.00    +0.000 OA
ATOM      2  O   UNL     1     -14.203 -14.509 -15.583  0.00  0.00    +0.000 OA
ATOM      3  O   UNL     1     -14.427  -9.653 -11.875  0.00  0.00    +0.000 OA
ATOM      4  N   UNL     1     -11.959 -14.194 -15.215  0.00  0.00    +0.000 N 
ATOM      5  N   UNL     1      -8.444 -13.702 -14.699  0.00  0.00    +0.000 NA
ATOM      6  C   UNL     1     -10.916 -13.418 -14.753  0.00  0.00    +0.000 A 
ATOM      7  C   UNL     1      -9.986 -15.346 -15.607  0.00  0.00    +0.000 A 
ATOM      8  C   UNL     1     -11.473 -15.455 -15.783  0.00  0.00    +0.000 C 
ATOM      9  C   UNL     1     -12.505 -11.739 -14.072  0.00  0.00    +0.000 A 
ATOM     10  C   UNL     1     -12.774 -10.375 -13.488  0.00  0.00    +0.000 C 
ATOM     11  C   UNL     1      -9.671 -14.137 -14.998  0.00  0.00    +0.000 A 
ATOM     12  C   UNL     1     -13.529 -12.492 -14.522  0.00  0.00    +0.000 A 
ATOM     13  C   UNL     1      -8.963 -16.219 -15.950  0.00  0.00    +0.000 A 
ATOM     14  C   UNL     1     -11.135 -12.224 -14.195  0.00  0.00    +0.000 A 
ATOM     15  C   UNL     1     -13.278 -13.827 -15.154  0.00  0.00    +0.000 A 
ATOM     16  C   UNL     1      -7.632 -15.797 -15.666  0.00  0.00    +0.000 A 
ATOM     17  C   UNL     1     -14.949 -12.055 -14.444  0.00  0.00    +0.000 C 
ATOM     18  C   UNL     1      -7.439 -14.525 -15.034  0.00  0.00    +0.000 A 
ATOM     19  C   UNL     1     -14.196 -10.321 -12.885  0.00  0.00    +0.000 C 
ATOM     20  C   UNL     1      -5.214 -16.092 -15.683  0.00  0.00    +0.000 A 
ATOM     21  C   UNL     1      -6.491 -16.567 -15.976  0.00  0.00    +0.000 A 
ATOM     22  C   UNL     1      -6.148 -14.103 -14.742  0.00  0.00    +0.000 A 
ATOM     23  C   UNL     1      -5.028 -14.874 -15.051  0.00  0.00    +0.000 A 
ENDROOT
BRANCH  10  24
ATOM     24  O   UNL     1     -11.828 -10.130 -12.437  0.00  0.00    +0.000 OA
ATOM     25  H   UNL     1     -11.598  -9.181 -12.494  0.00  0.00    +0.000 HD
ENDBRANCH  10  24
BRANCH  10  26
ATOM     26  C   UNL     1     -12.617  -9.284 -14.568  0.00  0.00    +0.000 C 
ATOM     27  C   UNL     1     -11.275  -9.300 -15.294  0.00  0.00    +0.000 C 
ENDBRANCH  10  26
BRANCH  13  28
ATOM     28  C   UNL     1      -9.290 -17.529 -16.623  0.00  0.00    +0.000 C 
ATOM     29  C   UNL     1      -9.342 -17.399 -18.138  0.00  0.00    +0.000 C 
ENDBRANCH  13  28
BRANCH  20  30
ATOM     30  O   UNL     1      -4.108 -16.897 -15.963  0.00  0.00    +0.000 OA
BRANCH  30  38
ATOM     31  O   UNL     1      -3.694 -16.324 -18.169  0.00  0.00    +0.000 OA
ATOM     32  N   UNL     1      -4.095 -18.521 -17.607  0.00  0.00    +0.000 N 
ATOM     33  C   UNL     1      -5.363 -21.026 -18.429  0.00  0.00    +0.000 C 
ATOM     34  C   UNL     1      -5.514 -20.432 -17.006  0.00  0.00    +0.000 C 
ATOM     35  C   UNL     1      -5.072 -19.865 -19.413  0.00  0.00    +0.000 C 
ATOM     36  C   UNL     1      -4.334 -19.550 -16.610  0.00  0.00    +0.000 C 
ATOM     37  C   UNL     1      -3.901 -18.998 -18.963  0.00  0.00    +0.000 C 
ATOM     38  C   UNL     1      -3.942 -17.173 -17.317  0.00  0.00    +0.000 C 
BRANCH  33  39
ATOM     39  N   UNL     1      -6.567 -21.815 -18.840  0.00  0.00    +0.000 NA
ATOM     40  C   UNL     1      -7.324 -21.150 -19.922  0.00  0.00    +0.000 C 
ATOM     41  C   UNL     1      -6.221 -23.194 -19.243  0.00  0.00    +0.000 C 
ATOM     42  C   UNL     1      -8.576 -21.926 -20.336  0.00  0.00    +0.000 C 
ATOM     43  C   UNL     1      -7.446 -24.022 -19.641  0.00  0.00    +0.000 C 
ATOM     44  C   UNL     1      -8.239 -23.349 -20.747  0.00  0.00    +0.000 C 
ENDBRANCH  33  39
ENDBRANCH  30  38
ENDBRANCH  20  30
TORSDOF 6
ENDMDL
MODEL 7
REMARK VINA RESULT:      -5.6      2.266      2.993
REMARK  Name = 
REMARK  8 active torsions:
REMARK  status: ('A' for Active; 'I' for Inactive)
REMARK    1  A    between atoms: O_1  and  C_21
REMARK    2  A    between atoms: O_1  and  C_38
REMARK    3  A    between atoms: O_4  and  C_26
REMARK    4  A    between atoms: N_7  and  C_11
REMARK    5  A    between atoms: C_26  and  C_33
REMARK    6  A    between atoms: C_29  and  C_37
REMARK    7  A    between atoms: C_33  and  C_42
REMARK    8  A    between atoms: C_37  and  C_43
REMARK                            x       y       z     vdW  Elec       q    Type
REMARK                         _______ _______ _______ _____ _____    ______ ____
ROOT
ATOM      1  O   UNL     1      -7.492 -11.881 -14.642  0.00  0.00    +0.000 OA
ATOM      2  O   UNL     1      -7.183 -15.906 -15.846  0.00  0.00    +0.000 OA
ATOM      3  O   UNL     1      -6.527 -10.417 -13.237  0.00  0.00    +0.000 OA
ATOM      4  N   UNL     1      -4.934 -15.956 -15.392  0.00  0.00    +0.000 N 
ATOM      5  N   UNL     1      -1.408 -16.048 -14.738  0.00  0.00    +0.000 NA
ATOM      6  C   UNL     1      -3.769 -15.314 -15.025  0.00  0.00    +0.000 A 
ATOM      7  C   UNL     1      -3.224 -17.522 -15.398  0.00  0.00    +0.000 A 
ATOM      8  C   UNL     1      -4.697 -17.379 -15.653  0.00  0.00    +0.000 C 
ATOM      9  C   UNL     1      -5.004 -13.255 -14.818  0.00  0.00    +0.000 A 
ATOM     10  C   UNL     1      -5.008 -11.772 -14.546  0.00  0.00    +0.000 C 
ATOM     11  C   UNL     1      -2.688 -16.293 -15.029  0.00  0.00    +0.000 A 
ATOM     12  C   UNL     1      -6.146 -13.876 -15.176  0.00  0.00    +0.000 A 
ATOM     13  C   UNL     1      -2.390 -18.628 -15.481  0.00  0.00    +0.000 A 
ATOM     14  C   UNL     1      -3.757 -14.008 -14.740  0.00  0.00    +0.000 A 
ATOM     15  C   UNL     1      -6.152 -15.338 -15.502  0.00  0.00    +0.000 A 
ATOM     16  C   UNL     1      -1.010 -18.417 -15.195  0.00  0.00    +0.000 A 
ATOM     17  C   UNL     1      -7.450 -13.169 -15.290  0.00  0.00    +0.000 C 
ATOM     18  C   UNL     1      -0.581 -17.101 -14.825  0.00  0.00    +0.000 A 
ATOM     19  C   UNL     1      -6.407 -11.318 -14.070  0.00  0.00    +0.000 C 
ATOM     20  C   UNL     1       1.298 -19.168 -14.979  0.00  0.00    +0.000 A 
ATOM     21  C   UNL     1      -0.039 -19.441 -15.258  0.00  0.00    +0.000 A 
ATOM     22  C   UNL     1       0.759 -16.881 -14.534  0.00  0.00    +0.000 A 
ATOM     23  C   UNL     1       1.708 -17.901 -14.598  0.00  0.00    +0.000 A 
ENDROOT
BRANCH  10  24
ATOM     24  O   UNL     1      -4.063 -11.493 -13.503  0.00  0.00    +0.000 OA
ATOM     25  H   UNL     1      -4.566 -11.046 -12.792  0.00  0.00    +0.000 HD
ENDBRANCH  10  24
BRANCH  10  26
ATOM     26  C   UNL     1      -4.603 -10.989 -15.812  0.00  0.00    +0.000 C 
ATOM     27  C   UNL     1      -3.165 -10.477 -15.807  0.00  0.00    +0.000 C 
ENDBRANCH  10  26
BRANCH  13  28
ATOM     28  C   UNL     1      -2.956 -19.965 -15.893  0.00  0.00    +0.000 C 
ATOM     29  C   UNL     1      -2.920 -20.163 -17.401  0.00  0.00    +0.000 C 
ENDBRANCH  13  28
BRANCH  20  30
ATOM     30  O   UNL     1       2.226 -20.210 -15.008  0.00  0.00    +0.000 OA
BRANCH  30  38
ATOM     31  O   UNL     1       1.689 -21.444 -13.123  0.00  0.00    +0.000 OA
ATOM     32  N   UNL     1       3.761 -20.456 -13.299  0.00  0.00    +0.000 N 
ATOM     33  C   UNL     1       5.902 -19.072 -11.863  0.00  0.00    +0.000 C 
ATOM     34  C   UNL     1       5.334 -18.572 -13.215  0.00  0.00    +0.000 C 
ATOM     35  C   UNL     1       4.803 -19.898 -11.148  0.00  0.00    +0.000 C 
ATOM     36  C   UNL     1       4.744 -19.699 -14.057  0.00  0.00    +0.000 C 
ATOM     37  C   UNL     1       4.227 -20.996 -12.036  0.00  0.00    +0.000 C 
ATOM     38  C   UNL     1       2.489 -20.764 -13.759  0.00  0.00    +0.000 C 
BRANCH  33  39
ATOM     39  N   UNL     1       6.396 -17.945 -11.009  0.00  0.00    +0.000 NA
ATOM     40  C   UNL     1       6.595 -16.705 -11.788  0.00  0.00    +0.000 C 
ATOM     41  C   UNL     1       5.502 -17.681  -9.862  0.00  0.00    +0.000 C 
ATOM     42  C   UNL     1       7.129 -15.549 -10.938  0.00  0.00    +0.000 C 
ATOM     43  C   UNL     1       6.007 -16.549  -8.964  0.00  0.00    +0.000 C 
ATOM     44  C   UNL     1       6.225 -15.268  -9.750  0.00  0.00    +0.000 C 
ENDBRANCH  33  39
ENDBRANCH  30  38
ENDBRANCH  20  30
TORSDOF 6
ENDMDL
MODEL 8
REMARK VINA RESULT:      -5.6     22.265     26.104
REMARK  Name = 
REMARK  8 active torsions:
REMARK  status: ('A' for Active; 'I' for Inactive)
REMARK    1  A    between atoms: O_1  and  C_21
REMARK    2  A    between atoms: O_1  and  C_38
REMARK    3  A    between atoms: O_4  and  C_26
REMARK    4  A    between atoms: N_7  and  C_11
REMARK    5  A    between atoms: C_26  and  C_33
REMARK    6  A    between atoms: C_29  and  C_37
REMARK    7  A    between atoms: C_33  and  C_42
REMARK    8  A    between atoms: C_37  and  C_43
REMARK                            x       y       z     vdW  Elec       q    Type
REMARK                         _______ _______ _______ _____ _____    ______ ____
ROOT
ATOM      1  O   UNL     1       1.872 -40.108  -3.953  0.00  0.00    +0.000 OA
ATOM      2  O   UNL     1      -1.077 -39.441  -6.887  0.00  0.00    +0.000 OA
ATOM      3  O   UNL     1       2.650 -39.207  -2.047  0.00  0.00    +0.000 OA
ATOM      4  N   UNL     1      -2.459 -38.397  -5.381  0.00  0.00    +0.000 N 
ATOM      5  N   UNL     1      -4.658 -36.805  -3.038  0.00  0.00    +0.000 NA
ATOM      6  C   UNL     1      -2.752 -38.012  -4.089  0.00  0.00    +0.000 A 
ATOM      7  C   UNL     1      -4.495 -37.291  -5.413  0.00  0.00    +0.000 A 
ATOM      8  C   UNL     1      -3.512 -37.982  -6.312  0.00  0.00    +0.000 C 
ATOM      9  C   UNL     1      -0.686 -39.009  -3.353  0.00  0.00    +0.000 A 
ATOM     10  C   UNL     1       0.242 -39.373  -2.221  0.00  0.00    +0.000 C 
ATOM     11  C   UNL     1      -4.035 -37.316  -4.102  0.00  0.00    +0.000 A 
ATOM     12  C   UNL     1      -0.393 -39.389  -4.612  0.00  0.00    +0.000 A 
ATOM     13  C   UNL     1      -5.711 -36.682  -5.692  0.00  0.00    +0.000 A 
ATOM     14  C   UNL     1      -1.924 -38.289  -3.077  0.00  0.00    +0.000 A 
ATOM     15  C   UNL     1      -1.328 -39.083  -5.741  0.00  0.00    +0.000 A 
ATOM     16  C   UNL     1      -6.426 -36.133  -4.589  0.00  0.00    +0.000 A 
ATOM     17  C   UNL     1       0.843 -40.140  -4.964  0.00  0.00    +0.000 C 
ATOM     18  C   UNL     1      -5.842 -36.223  -3.283  0.00  0.00    +0.000 A 
ATOM     19  C   UNL     1       1.688 -39.534  -2.745  0.00  0.00    +0.000 C 
ATOM     20  C   UNL     1      -8.337 -34.996  -3.593  0.00  0.00    +0.000 A 
ATOM     21  C   UNL     1      -7.683 -35.502  -4.714  0.00  0.00    +0.000 A 
ATOM     22  C   UNL     1      -6.521 -35.684  -2.198  0.00  0.00    +0.000 A 
ATOM     23  C   UNL     1      -7.762 -35.062  -2.336  0.00  0.00    +0.000 A 
ENDROOT
BRANCH  10  24
ATOM     24  O   UNL     1       0.227 -38.314  -1.254  0.00  0.00    +0.000 OA
ATOM     25  H   UNL     1      -0.291 -38.647  -0.494  0.00  0.00    +0.000 HD
ENDBRANCH  10  24
BRANCH  10  26
ATOM     26  C   UNL     1      -0.220 -40.680  -1.542  0.00  0.00    +0.000 C 
ATOM     27  C   UNL     1      -0.852 -40.488  -0.166  0.00  0.00    +0.000 C 
ENDBRANCH  10  26
BRANCH  13  28
ATOM     28  C   UNL     1      -6.230 -36.659  -7.109  0.00  0.00    +0.000 C 
ATOM     29  C   UNL     1      -6.990 -37.928  -7.463  0.00  0.00    +0.000 C 
ENDBRANCH  13  28
BRANCH  20  30
ATOM     30  O   UNL     1      -9.558 -34.340  -3.757  0.00  0.00    +0.000 OA
BRANCH  30  38
ATOM     31  O   UNL     1     -11.009 -35.397  -2.293  0.00  0.00    +0.000 OA
ATOM     32  N   UNL     1     -11.337 -35.573  -4.566  0.00  0.00    +0.000 N 
ATOM     33  C   UNL     1     -12.160 -37.334  -6.754  0.00  0.00    +0.000 C 
ATOM     34  C   UNL     1     -10.882 -36.460  -6.810  0.00  0.00    +0.000 C 
ATOM     35  C   UNL     1     -12.484 -37.627  -5.267  0.00  0.00    +0.000 C 
ATOM     36  C   UNL     1     -10.980 -35.218  -5.929  0.00  0.00    +0.000 C 
ATOM     37  C   UNL     1     -12.548 -36.359  -4.422  0.00  0.00    +0.000 C 
ATOM     38  C   UNL     1     -10.664 -35.124  -3.440  0.00  0.00    +0.000 C 
BRANCH  33  39
ATOM     39  N   UNL     1     -12.015 -38.594  -7.550  0.00  0.00    +0.000 NA
ATOM     40  C   UNL     1     -10.643 -38.766  -8.072  0.00  0.00    +0.000 C 
ATOM     41  C   UNL     1     -12.414 -39.791  -6.781  0.00  0.00    +0.000 C 
ATOM     42  C   UNL     1     -10.482 -40.033  -8.916  0.00  0.00    +0.000 C 
ATOM     43  C   UNL     1     -12.297 -41.084  -7.591  0.00  0.00    +0.000 C 
ATOM     44  C   UNL     1     -10.895 -41.272  -8.142  0.00  0.00    +0.000 C 
ENDBRANCH  33  39
ENDBRANCH  30  38
ENDBRANCH  20  30
TORSDOF 6
ENDMDL
MODEL 9
REMARK VINA RESULT:      -5.4     23.633     27.190
REMARK  Name = 
REMARK  8 active torsions:
REMARK  status: ('A' for Active; 'I' for Inactive)
REMARK    1  A    between atoms: O_1  and  C_21
REMARK    2  A    between atoms: O_1  and  C_38
REMARK    3  A    between atoms: O_4  and  C_26
REMARK    4  A    between atoms: N_7  and  C_11
REMARK    5  A    between atoms: C_26  and  C_33
REMARK    6  A    between atoms: C_29  and  C_37
REMARK    7  A    between atoms: C_33  and  C_42
REMARK    8  A    between atoms: C_37  and  C_43
REMARK                            x       y       z     vdW  Elec       q    Type
REMARK                         _______ _______ _______ _____ _____    ______ ____
ROOT
ATOM      1  O   UNL     1       4.466 -40.408  -6.085  0.00  0.00    +0.000 OA
ATOM      2  O   UNL     1       0.268 -40.377  -6.431  0.00  0.00    +0.000 OA
ATOM      3  O   UNL     1       6.124 -39.300  -5.049  0.00  0.00    +0.000 OA
ATOM      4  N   UNL     1       0.017 -39.502  -4.324  0.00  0.00    +0.000 N 
ATOM      5  N   UNL     1      -0.406 -38.181  -1.016  0.00  0.00    +0.000 NA
ATOM      6  C   UNL     1       0.556 -39.108  -3.116  0.00  0.00    +0.000 A 
ATOM      7  C   UNL     1      -1.716 -38.748  -2.982  0.00  0.00    +0.000 A 
ATOM      8  C   UNL     1      -1.436 -39.311  -4.345  0.00  0.00    +0.000 C 
ATOM      9  C   UNL     1       2.742 -39.717  -3.927  0.00  0.00    +0.000 A 
ATOM     10  C   UNL     1       4.220 -39.868  -3.668  0.00  0.00    +0.000 C 
ATOM     11  C   UNL     1      -0.531 -38.634  -2.266  0.00  0.00    +0.000 A 
ATOM     12  C   UNL     1       2.223 -40.103  -5.109  0.00  0.00    +0.000 A 
ATOM     13  C   UNL     1      -2.908 -38.362  -2.385  0.00  0.00    +0.000 A 
ATOM     14  C   UNL     1       1.869 -39.196  -2.881  0.00  0.00    +0.000 A 
ATOM     15  C   UNL     1       0.750 -40.010  -5.365  0.00  0.00    +0.000 A 
ATOM     16  C   UNL     1      -2.833 -37.884  -1.045  0.00  0.00    +0.000 A 
ATOM     17  C   UNL     1       3.051 -40.657  -6.214  0.00  0.00    +0.000 C 
ATOM     18  C   UNL     1      -1.548 -37.814  -0.415  0.00  0.00    +0.000 A 
ATOM     19  C   UNL     1       5.005 -39.814  -4.999  0.00  0.00    +0.000 C 
ATOM     20  C   UNL     1      -3.824 -37.030   1.011  0.00  0.00    +0.000 A 
ATOM     21  C   UNL     1      -3.962 -37.476  -0.302  0.00  0.00    +0.000 A 
ATOM     22  C   UNL     1      -1.456 -37.343   0.888  0.00  0.00    +0.000 A 
ATOM     23  C   UNL     1      -2.579 -36.940   1.611  0.00  0.00    +0.000 A 
ENDROOT
BRANCH  10  24
ATOM     24  O   UNL     1       4.657 -38.781  -2.842  0.00  0.00    +0.000 OA
ATOM     25  H   UNL     1       5.380 -38.339  -3.331  0.00  0.00    +0.000 HD
ENDBRANCH  10  24
BRANCH  10  26
ATOM     26  C   UNL     1       4.508 -41.199  -2.940  0.00  0.00    +0.000 C 
ATOM     27  C   UNL     1       5.017 -41.040  -1.510  0.00  0.00    +0.000 C 
ENDBRANCH  10  26
BRANCH  13  28
ATOM     28  C   UNL     1      -4.205 -38.492  -3.147  0.00  0.00    +0.000 C 
ATOM     29  C   UNL     1      -4.825 -39.873  -2.991  0.00  0.00    +0.000 C 
ENDBRANCH  13  28
BRANCH  20  30
ATOM     30  O   UNL     1      -4.954 -36.593   1.703  0.00  0.00    +0.000 OA
BRANCH  30  38
ATOM     31  O   UNL     1      -5.886 -38.682   2.065  0.00  0.00    +0.000 OA
ATOM     32  N   UNL     1      -7.192 -36.962   1.265  0.00  0.00    +0.000 N 
ATOM     33  C   UNL     1      -9.372 -36.231  -0.546  0.00  0.00    +0.000 C 
ATOM     34  C   UNL     1      -8.040 -35.443  -0.468  0.00  0.00    +0.000 C 
ATOM     35  C   UNL     1      -9.102 -37.690  -0.096  0.00  0.00    +0.000 C 
ATOM     36  C   UNL     1      -7.363 -35.568   0.893  0.00  0.00    +0.000 C 
ATOM     37  C   UNL     1      -8.402 -37.762   1.258  0.00  0.00    +0.000 C 
ATOM     38  C   UNL     1      -5.999 -37.511   1.711  0.00  0.00    +0.000 C 
BRANCH  33  39
ATOM     39  N   UNL     1      -9.980 -36.175  -1.913  0.00  0.00    +0.000 NA
ATOM     40  C   UNL     1      -9.497 -35.012  -2.687  0.00  0.00    +0.000 C 
ATOM     41  C   UNL     1      -9.752 -37.418  -2.678  0.00  0.00    +0.000 C 
ATOM     42  C   UNL     1     -10.131 -34.919  -4.077  0.00  0.00    +0.000 C 
ATOM     43  C   UNL     1     -10.391 -37.386  -4.068  0.00  0.00    +0.000 C 
ATOM     44  C   UNL     1      -9.912 -36.193  -4.875  0.00  0.00    +0.000 C 
ENDBRANCH  33  39
ENDBRANCH  30  38
ENDBRANCH  20  30
TORSDOF 6
ENDMDL
