MODEL 1
REMARK VINA RESULT:      -4.8      0.000      0.000
REMARK  Name = 
REMARK  4 active torsions:
REMARK  status: ('A' for Active; 'I' for Inactive)
REMARK    1  A    between atoms: C_1  and  C_6
REMARK    2  A    between atoms: C_1  and  C_7
REMARK    3  A    between atoms: C_9  and  C_14
REMARK    4  A    between atoms: C_11  and  C_15
REMARK                            x       y       z     vdW  Elec       q    Type
REMARK                         _______ _______ _______ _____ _____    ______ ____
ROOT
ATOM      1  C   UNL     1      -2.948 -36.432  -9.301  0.00  0.00    +0.000 C 
ATOM      2  C   UNL     1      -2.259 -35.346  -8.481  0.00  0.00    +0.000 C 
ATOM      3  C   UNL     1      -2.377 -36.744  -7.928  0.00  0.00    +0.000 C 
ATOM      4  C   UNL     1      -3.031 -34.221  -7.957  0.00  0.00    +0.000 C 
ATOM      5  C   UNL     1      -3.197 -37.029  -6.710  0.00  0.00    +0.000 C 
ATOM      6  C   UNL     1      -4.444 -36.420  -9.512  0.00  0.00    +0.000 C 
ATOM      7  C   UNL     1      -2.195 -36.971 -10.494  0.00  0.00    +0.000 C 
ATOM      8  C   UNL     1      -3.516 -33.982  -6.723  0.00  0.00    +0.000 C 
ATOM      9  C   UNL     1      -3.381 -33.092  -8.907  0.00  0.00    +0.000 C 
ATOM     10  C   UNL     1      -2.726 -36.168  -5.539  0.00  0.00    +0.000 C 
ATOM     11  C   UNL     1      -3.433 -34.800  -5.455  0.00  0.00    +0.000 C 
ATOM     12  C   UNL     1      -4.289 -32.688  -6.695  0.00  0.00    +0.000 C 
ATOM     13  C   UNL     1      -4.524 -32.393  -8.171  0.00  0.00    +0.000 C 
ATOM     14  C   UNL     1      -2.198 -32.159  -9.156  0.00  0.00    +0.000 C 
ATOM     15  C   UNL     1      -2.784 -33.988  -4.325  0.00  0.00    +0.000 C 
ENDROOT
TORSDOF 0
ENDMDL
MODEL 2
REMARK VINA RESULT:      -4.6     18.697     20.532
REMARK  Name = 
REMARK  4 active torsions:
REMARK  status: ('A' for Active; 'I' for Inactive)
REMARK    1  A    between atoms: C_1  and  C_6
REMARK    2  A    between atoms: C_1  and  C_7
REMARK    3  A    between atoms: C_9  and  C_14
REMARK    4  A    between atoms: C_11  and  C_15
REMARK                            x       y       z     vdW  Elec       q    Type
REMARK                         _______ _______ _______ _____ _____    ______ ____
ROOT
ATOM      1  C   UNL     1      -4.651 -17.725   1.236  0.00  0.00    +0.000 C 
ATOM      2  C   UNL     1      -3.660 -16.659   0.777  0.00  0.00    +0.000 C 
ATOM      3  C   UNL     1      -4.757 -16.298   1.747  0.00  0.00    +0.000 C 
ATOM      4  C   UNL     1      -3.656 -16.210  -0.613  0.00  0.00    +0.000 C 
ATOM      5  C   UNL     1      -5.839 -15.336   1.372  0.00  0.00    +0.000 C 
ATOM      6  C   UNL     1      -5.702 -18.270   0.296  0.00  0.00    +0.000 C 
ATOM      7  C   UNL     1      -4.141 -18.763   2.206  0.00  0.00    +0.000 C 
ATOM      8  C   UNL     1      -4.166 -15.102  -1.185  0.00  0.00    +0.000 C 
ATOM      9  C   UNL     1      -2.979 -17.092  -1.645  0.00  0.00    +0.000 C 
ATOM     10  C   UNL     1      -5.235 -14.005   0.926  0.00  0.00    +0.000 C 
ATOM     11  C   UNL     1      -4.925 -13.941  -0.583  0.00  0.00    +0.000 C 
ATOM     12  C   UNL     1      -3.936 -15.116  -2.674  0.00  0.00    +0.000 C 
ATOM     13  C   UNL     1      -3.567 -16.567  -2.954  0.00  0.00    +0.000 C 
ATOM     14  C   UNL     1      -1.458 -16.964  -1.603  0.00  0.00    +0.000 C 
ATOM     15  C   UNL     1      -4.210 -12.614  -0.876  0.00  0.00    +0.000 C 
ENDROOT
TORSDOF 0
ENDMDL
MODEL 3
REMARK VINA RESULT:      -4.6     28.807     30.542
REMARK  Name = 
REMARK  4 active torsions:
REMARK  status: ('A' for Active; 'I' for Inactive)
REMARK    1  A    between atoms: C_1  and  C_6
REMARK    2  A    between atoms: C_1  and  C_7
REMARK    3  A    between atoms: C_9  and  C_14
REMARK    4  A    between atoms: C_11  and  C_15
REMARK                            x       y       z     vdW  Elec       q    Type
REMARK                         _______ _______ _______ _____ _____    ______ ____
ROOT
ATOM      1  C   UNL     1     -13.332  -5.543  -5.029  0.00  0.00    +0.000 C 
ATOM      2  C   UNL     1     -12.350  -6.479  -5.728  0.00  0.00    +0.000 C 
ATOM      3  C   UNL     1     -11.951  -5.792  -4.447  0.00  0.00    +0.000 C 
ATOM      4  C   UNL     1     -11.789  -6.116  -7.028  0.00  0.00    +0.000 C 
ATOM      5  C   UNL     1     -10.844  -4.785  -4.420  0.00  0.00    +0.000 C 
ATOM      6  C   UNL     1     -13.674  -4.192  -5.614  0.00  0.00    +0.000 C 
ATOM      7  C   UNL     1     -14.500  -6.183  -4.317  0.00  0.00    +0.000 C 
ATOM      8  C   UNL     1     -10.586  -5.609  -7.360  0.00  0.00    +0.000 C 
ATOM      9  C   UNL     1     -12.652  -6.321  -8.258  0.00  0.00    +0.000 C 
ATOM     10  C   UNL     1      -9.557  -5.395  -4.972  0.00  0.00    +0.000 C 
ATOM     11  C   UNL     1      -9.402  -5.234  -6.498  0.00  0.00    +0.000 C 
ATOM     12  C   UNL     1     -10.500  -5.367  -8.845  0.00  0.00    +0.000 C 
ATOM     13  C   UNL     1     -11.955  -5.435  -9.292  0.00  0.00    +0.000 C 
ATOM     14  C   UNL     1     -12.701  -7.784  -8.692  0.00  0.00    +0.000 C 
ATOM     15  C   UNL     1      -8.145  -5.995  -6.941  0.00  0.00    +0.000 C 
ENDROOT
TORSDOF 0
ENDMDL
MODEL 4
REMARK VINA RESULT:      -4.4      1.222      3.373
REMARK  Name = 
REMARK  4 active torsions:
REMARK  status: ('A' for Active; 'I' for Inactive)
REMARK    1  A    between atoms: C_1  and  C_6
REMARK    2  A    between atoms: C_1  and  C_7
REMARK    3  A    between atoms: C_9  and  C_14
REMARK    4  A    between atoms: C_11  and  C_15
REMARK                            x       y       z     vdW  Elec       q    Type
REMARK                         _______ _______ _______ _____ _____    ______ ____
ROOT
ATOM      1  C   UNL     1      -3.226 -36.521  -6.005  0.00  0.00    +0.000 C 
ATOM      2  C   UNL     1      -2.485 -35.388  -6.709  0.00  0.00    +0.000 C 
ATOM      3  C   UNL     1      -3.323 -35.095  -5.490  0.00  0.00    +0.000 C 
ATOM      4  C   UNL     1      -2.877 -34.979  -8.055  0.00  0.00    +0.000 C 
ATOM      5  C   UNL     1      -4.547 -34.238  -5.579  0.00  0.00    +0.000 C 
ATOM      6  C   UNL     1      -4.430 -37.178  -6.639  0.00  0.00    +0.000 C 
ATOM      7  C   UNL     1      -2.394 -37.486  -5.195  0.00  0.00    +0.000 C 
ATOM      8  C   UNL     1      -3.613 -33.934  -8.481  0.00  0.00    +0.000 C 
ATOM      9  C   UNL     1      -2.412 -35.828  -9.222  0.00  0.00    +0.000 C 
ATOM     10  C   UNL     1      -4.198 -32.873  -6.171  0.00  0.00    +0.000 C 
ATOM     11  C   UNL     1      -4.291 -32.826  -7.709  0.00  0.00    +0.000 C 
ATOM     12  C   UNL     1      -3.773 -33.969  -9.980  0.00  0.00    +0.000 C 
ATOM     13  C   UNL     1      -3.360 -35.391 -10.339  0.00  0.00    +0.000 C 
ATOM     14  C   UNL     1      -0.949 -35.571  -9.575  0.00  0.00    +0.000 C 
ATOM     15  C   UNL     1      -3.797 -31.451  -8.183  0.00  0.00    +0.000 C 
ENDROOT
TORSDOF 0
ENDMDL
MODEL 5
REMARK VINA RESULT:      -4.4      6.278      8.608
REMARK  Name = 
REMARK  4 active torsions:
REMARK  status: ('A' for Active; 'I' for Inactive)
REMARK    1  A    between atoms: C_1  and  C_6
REMARK    2  A    between atoms: C_1  and  C_7
REMARK    3  A    between atoms: C_9  and  C_14
REMARK    4  A    between atoms: C_11  and  C_15
REMARK                            x       y       z     vdW  Elec       q    Type
REMARK                         _______ _______ _______ _____ _____    ______ ____
ROOT
ATOM      1  C   UNL     1       2.480 -32.826 -10.542  0.00  0.00    +0.000 C 
ATOM      2  C   UNL     1       3.456 -31.938 -11.308  0.00  0.00    +0.000 C 
ATOM      3  C   UNL     1       3.502 -31.980  -9.801  0.00  0.00    +0.000 C 
ATOM      4  C   UNL     1       2.966 -30.779 -12.051  0.00  0.00    +0.000 C 
ATOM      5  C   UNL     1       3.174 -30.773  -8.981  0.00  0.00    +0.000 C 
ATOM      6  C   UNL     1       1.011 -32.482 -10.459  0.00  0.00    +0.000 C 
ATOM      7  C   UNL     1       2.728 -34.315 -10.588  0.00  0.00    +0.000 C 
ATOM      8  C   UNL     1       2.972 -29.467 -11.746  0.00  0.00    +0.000 C 
ATOM      9  C   UNL     1       2.331 -31.019 -13.407  0.00  0.00    +0.000 C 
ATOM     10  C   UNL     1       4.067 -29.600  -9.382  0.00  0.00    +0.000 C 
ATOM     11  C   UNL     1       3.485 -28.742 -10.523  0.00  0.00    +0.000 C 
ATOM     12  C   UNL     1       2.305 -28.663 -12.832  0.00  0.00    +0.000 C 
ATOM     13  C   UNL     1       1.558 -29.720 -13.637  0.00  0.00    +0.000 C 
ATOM     14  C   UNL     1       3.371 -31.272 -14.495  0.00  0.00    +0.000 C 
ATOM     15  C   UNL     1       4.526 -27.684 -10.915  0.00  0.00    +0.000 C 
ENDROOT
TORSDOF 0
ENDMDL
MODEL 6
REMARK VINA RESULT:      -4.3     19.368     20.978
REMARK  Name = 
REMARK  4 active torsions:
REMARK  status: ('A' for Active; 'I' for Inactive)
REMARK    1  A    between atoms: C_1  and  C_6
REMARK    2  A    between atoms: C_1  and  C_7
REMARK    3  A    between atoms: C_9  and  C_14
REMARK    4  A    between atoms: C_11  and  C_15
REMARK                            x       y       z     vdW  Elec       q    Type
REMARK                         _______ _______ _______ _____ _____    ______ ____
ROOT
ATOM      1  C   UNL     1     -13.809 -20.591   1.898  0.00  0.00    +0.000 C 
ATOM      2  C   UNL     1     -12.722 -19.951   1.039  0.00  0.00    +0.000 C 
ATOM      3  C   UNL     1     -12.466 -20.216   2.501  0.00  0.00    +0.000 C 
ATOM      4  C   UNL     1     -12.909 -18.605   0.501  0.00  0.00    +0.000 C 
ATOM      5  C   UNL     1     -12.249 -19.094   3.467  0.00  0.00    +0.000 C 
ATOM      6  C   UNL     1     -15.051 -19.823   2.285  0.00  0.00    +0.000 C 
ATOM      7  C   UNL     1     -14.076 -22.061   1.682  0.00  0.00    +0.000 C 
ATOM      8  C   UNL     1     -12.424 -17.417   0.908  0.00  0.00    +0.000 C 
ATOM      9  C   UNL     1     -13.785 -18.444  -0.726  0.00  0.00    +0.000 C 
ATOM     10  C   UNL     1     -11.090 -18.212   3.004  0.00  0.00    +0.000 C 
ATOM     11  C   UNL     1     -11.522 -17.065   2.069  0.00  0.00    +0.000 C 
ATOM     12  C   UNL     1     -12.944 -16.302   0.038  0.00  0.00    +0.000 C 
ATOM     13  C   UNL     1     -14.111 -16.951  -0.697  0.00  0.00    +0.000 C 
ATOM     14  C   UNL     1     -13.064 -18.852  -2.008  0.00  0.00    +0.000 C 
ATOM     15  C   UNL     1     -10.262 -16.338   1.577  0.00  0.00    +0.000 C 
ENDROOT
TORSDOF 0
ENDMDL
MODEL 7
REMARK VINA RESULT:      -4.3     18.817     21.393
REMARK  Name = 
REMARK  4 active torsions:
REMARK  status: ('A' for Active; 'I' for Inactive)
REMARK    1  A    between atoms: C_1  and  C_6
REMARK    2  A    between atoms: C_1  and  C_7
REMARK    3  A    between atoms: C_9  and  C_14
REMARK    4  A    between atoms: C_11  and  C_15
REMARK                            x       y       z     vdW  Elec       q    Type
REMARK                         _______ _______ _______ _____ _____    ______ ____
ROOT
ATOM      1  C   UNL     1      -4.242 -12.848  -0.190  0.00  0.00    +0.000 C 
ATOM      2  C   UNL     1      -4.814 -14.068  -0.906  0.00  0.00    +0.000 C 
ATOM      3  C   UNL     1      -5.374 -13.649   0.430  0.00  0.00    +0.000 C 
ATOM      4  C   UNL     1      -3.997 -15.267  -1.079  0.00  0.00    +0.000 C 
ATOM      5  C   UNL     1      -5.237 -14.523   1.637  0.00  0.00    +0.000 C 
ATOM      6  C   UNL     1      -2.865 -12.881   0.430  0.00  0.00    +0.000 C 
ATOM      7  C   UNL     1      -4.594 -11.493  -0.758  0.00  0.00    +0.000 C 
ATOM      8  C   UNL     1      -3.988 -16.434  -0.407  0.00  0.00    +0.000 C 
ATOM      9  C   UNL     1      -2.962 -15.269  -2.188  0.00  0.00    +0.000 C 
ATOM     10  C   UNL     1      -5.830 -15.905   1.362  0.00  0.00    +0.000 C 
ATOM     11  C   UNL     1      -4.818 -16.903   0.766  0.00  0.00    +0.000 C 
ATOM     12  C   UNL     1      -2.920 -17.352  -0.946  0.00  0.00    +0.000 C 
ATOM     13  C   UNL     1      -2.043 -16.417  -1.770  0.00  0.00    +0.000 C 
ATOM     14  C   UNL     1      -3.588 -15.502  -3.561  0.00  0.00    +0.000 C 
ATOM     15  C   UNL     1      -5.563 -18.200   0.420  0.00  0.00    +0.000 C 
ENDROOT
TORSDOF 0
ENDMDL
MODEL 8
REMARK VINA RESULT:      -4.3      3.602      5.296
REMARK  Name = 
REMARK  4 active torsions:
REMARK  status: ('A' for Active; 'I' for Inactive)
REMARK    1  A    between atoms: C_1  and  C_6
REMARK    2  A    between atoms: C_1  and  C_7
REMARK    3  A    between atoms: C_9  and  C_14
REMARK    4  A    between atoms: C_11  and  C_15
REMARK                            x       y       z     vdW  Elec       q    Type
REMARK                         _______ _______ _______ _____ _____    ______ ____
ROOT
ATOM      1  C   UNL     1       1.555 -36.199 -10.894  0.00  0.00    +0.000 C 
ATOM      2  C   UNL     1       1.377 -34.902 -10.109  0.00  0.00    +0.000 C 
ATOM      3  C   UNL     1       0.444 -36.062  -9.866  0.00  0.00    +0.000 C 
ATOM      4  C   UNL     1       0.958 -33.681 -10.794  0.00  0.00    +0.000 C 
ATOM      5  C   UNL     1      -1.013 -35.967 -10.194  0.00  0.00    +0.000 C 
ATOM      6  C   UNL     1       1.218 -36.273 -12.365  0.00  0.00    +0.000 C 
ATOM      7  C   UNL     1       2.729 -37.070 -10.520  0.00  0.00    +0.000 C 
ATOM      8  C   UNL     1      -0.244 -33.078 -10.867  0.00  0.00    +0.000 C 
ATOM      9  C   UNL     1       2.003 -32.907 -11.574  0.00  0.00    +0.000 C 
ATOM     10  C   UNL     1      -1.644 -34.779  -9.470  0.00  0.00    +0.000 C 
ATOM     11  C   UNL     1      -1.578 -33.462 -10.269  0.00  0.00    +0.000 C 
ATOM     12  C   UNL     1      -0.173 -31.850 -11.738  0.00  0.00    +0.000 C 
ATOM     13  C   UNL     1       1.144 -32.030 -12.483  0.00  0.00    +0.000 C 
ATOM     14  C   UNL     1       2.909 -32.081 -10.663  0.00  0.00    +0.000 C 
ATOM     15  C   UNL     1      -2.125 -32.330  -9.387  0.00  0.00    +0.000 C 
ENDROOT
TORSDOF 0
ENDMDL
MODEL 9
REMARK VINA RESULT:      -4.2     19.962     21.817
REMARK  Name = 
REMARK  4 active torsions:
REMARK  status: ('A' for Active; 'I' for Inactive)
REMARK    1  A    between atoms: C_1  and  C_6
REMARK    2  A    between atoms: C_1  and  C_7
REMARK    3  A    between atoms: C_9  and  C_14
REMARK    4  A    between atoms: C_11  and  C_15
REMARK                            x       y       z     vdW  Elec       q    Type
REMARK                         _______ _______ _______ _____ _____    ______ ____
ROOT
ATOM      1  C   UNL     1     -13.603 -18.491  -0.653  0.00  0.00    +0.000 C 
ATOM      2  C   UNL     1     -12.455 -17.931   0.182  0.00  0.00    +0.000 C 
ATOM      3  C   UNL     1     -12.830 -19.386   0.301  0.00  0.00    +0.000 C 
ATOM      4  C   UNL     1     -12.724 -16.957   1.239  0.00  0.00    +0.000 C 
ATOM      5  C   UNL     1     -13.377 -19.945   1.576  0.00  0.00    +0.000 C 
ATOM      6  C   UNL     1     -15.038 -18.127  -0.351  0.00  0.00    +0.000 C 
ATOM      7  C   UNL     1     -13.347 -18.681  -2.129  0.00  0.00    +0.000 C 
ATOM      8  C   UNL     1     -12.806 -17.105   2.575  0.00  0.00    +0.000 C 
ATOM      9  C   UNL     1     -12.956 -15.514   0.836  0.00  0.00    +0.000 C 
ATOM     10  C   UNL     1     -12.410 -19.679   2.730  0.00  0.00    +0.000 C 
ATOM     11  C   UNL     1     -12.656 -18.334   3.443  0.00  0.00    +0.000 C 
ATOM     12  C   UNL     1     -13.147 -15.795   3.237  0.00  0.00    +0.000 C 
ATOM     13  C   UNL     1     -13.638 -14.938   2.077  0.00  0.00    +0.000 C 
ATOM     14  C   UNL     1     -11.654 -14.790   0.505  0.00  0.00    +0.000 C 
ATOM     15  C   UNL     1     -11.549 -18.129   4.488  0.00  0.00    +0.000 C 
ENDROOT
TORSDOF 0
ENDMDL
