MODEL 1
REMARK VINA RESULT:      -6.6      0.000      0.000
REMARK  Name = JAK3_Inhibitor.pdbqt.pdb
REMARK  1 active torsions:
REMARK  status: ('A' for Active; 'I' for Inactive)
REMARK    1  A    between atoms: C_7  and  C_20
REMARK                            x       y       z     vdW  Elec       q    Type
REMARK                         _______ _______ _______ _____ _____    ______ ____
ROOT
ATOM      1  O   UNL     1     -13.324 -19.916   0.860  0.00  0.00    +0.000 OA
ATOM      2  N   UNL     1     -14.876 -19.982  -0.893  0.00  0.00    +0.000 N 
ATOM      3  C   UNL     1     -14.720 -17.832  -1.676  0.00  0.00    +0.000 A 
ATOM      4  C   UNL     1     -15.345 -19.070  -1.839  0.00  0.00    +0.000 A 
ATOM      5  C   UNL     1     -13.808 -17.995  -0.556  0.00  0.00    +0.000 C 
ATOM      6  C   UNL     1     -15.024 -16.767  -2.501  0.00  0.00    +0.000 A 
ATOM      7  C   UNL     1     -15.978 -16.944  -3.517  0.00  0.00    +0.000 A 
ATOM      8  C   UNL     1     -13.926 -19.401  -0.062  0.00  0.00    +0.000 C 
ATOM      9  C   UNL     1     -16.285 -19.293  -2.820  0.00  0.00    +0.000 A 
ATOM     10  C   UNL     1     -13.016 -17.109  -0.041  0.00  0.00    +0.000 C 
ATOM     11  C   UNL     1     -16.589 -18.214  -3.653  0.00  0.00    +0.000 A 
ATOM     12  H   UNL     1     -15.172 -20.944  -0.804  0.00  0.00    +0.000 HD
ATOM     13  N   UNL     1     -11.320 -16.469   1.623  0.00  0.00    +0.000 N 
ATOM     14  C   UNL     1     -12.132 -16.177   0.558  0.00  0.00    +0.000 C 
ATOM     15  C   UNL     1     -11.918 -14.863   0.211  0.00  0.00    +0.000 C 
ATOM     16  C   UNL     1     -10.594 -15.358   1.960  0.00  0.00    +0.000 C 
ATOM     17  C   UNL     1     -10.946 -14.345   1.099  0.00  0.00    +0.000 C 
ATOM     18  H   UNL     1     -11.268 -17.366   2.087  0.00  0.00    +0.000 HD
ENDROOT
BRANCH   7  20
ATOM     19  N   UNL     1     -18.051 -14.523  -5.537  0.00  0.00    +0.000 NA
ATOM     20  C   UNL     1     -16.332 -15.841  -4.417  0.00  0.00    +0.000 A 
ATOM     21  C   UNL     1     -15.365 -15.040  -5.028  0.00  0.00    +0.000 A 
ATOM     22  C   UNL     1     -17.653 -15.523  -4.719  0.00  0.00    +0.000 A 
ATOM     23  C   UNL     1     -15.721 -13.999  -5.878  0.00  0.00    +0.000 A 
ATOM     24  C   UNL     1     -17.070 -13.784  -6.097  0.00  0.00    +0.000 A 
ENDBRANCH   7  20
TORSDOF 1
ENDMDL
MODEL 2
REMARK VINA RESULT:      -5.8      5.025      9.362
REMARK  Name = JAK3_Inhibitor.pdbqt.pdb
REMARK  1 active torsions:
REMARK  status: ('A' for Active; 'I' for Inactive)
REMARK    1  A    between atoms: C_7  and  C_20
REMARK                            x       y       z     vdW  Elec       q    Type
REMARK                         _______ _______ _______ _____ _____    ______ ____
ROOT
ATOM      1  O   UNL     1     -13.206 -14.708   0.766  0.00  0.00    +0.000 OA
ATOM      2  N   UNL     1     -10.966 -14.059   0.979  0.00  0.00    +0.000 N 
ATOM      3  C   UNL     1      -9.972 -16.092   1.357  0.00  0.00    +0.000 A 
ATOM      4  C   UNL     1      -9.760 -14.719   1.217  0.00  0.00    +0.000 A 
ATOM      5  C   UNL     1     -11.403 -16.288   1.194  0.00  0.00    +0.000 C 
ATOM      6  C   UNL     1      -8.921 -16.953   1.600  0.00  0.00    +0.000 A 
ATOM      7  C   UNL     1      -7.622 -16.429   1.706  0.00  0.00    +0.000 A 
ATOM      8  C   UNL     1     -12.030 -14.953   0.949  0.00  0.00    +0.000 C 
ATOM      9  C   UNL     1      -8.506 -14.157   1.312  0.00  0.00    +0.000 A 
ATOM     10  C   UNL     1     -12.063 -17.400   1.245  0.00  0.00    +0.000 C 
ATOM     11  C   UNL     1      -7.445 -15.032   1.557  0.00  0.00    +0.000 A 
ATOM     12  H   UNL     1     -11.078 -13.064   0.842  0.00  0.00    +0.000 HD
ATOM     13  N   UNL     1     -14.190 -18.631   1.119  0.00  0.00    +0.000 N 
ATOM     14  C   UNL     1     -12.831 -18.591   1.290  0.00  0.00    +0.000 C 
ATOM     15  C   UNL     1     -12.394 -19.878   1.503  0.00  0.00    +0.000 C 
ATOM     16  C   UNL     1     -14.624 -19.926   1.221  0.00  0.00    +0.000 C 
ATOM     17  C   UNL     1     -13.528 -20.722   1.459  0.00  0.00    +0.000 C 
ATOM     18  H   UNL     1     -14.779 -17.827   0.945  0.00  0.00    +0.000 HD
ENDROOT
BRANCH   7  20
ATOM     19  N   UNL     1      -4.940 -18.332   3.555  0.00  0.00    +0.000 NA
ATOM     20  C   UNL     1      -6.475 -17.307   1.963  0.00  0.00    +0.000 A 
ATOM     21  C   UNL     1      -5.797 -17.966   0.935  0.00  0.00    +0.000 A 
ATOM     22  C   UNL     1      -5.989 -17.538   3.246  0.00  0.00    +0.000 A 
ATOM     23  C   UNL     1      -4.712 -18.794   1.199  0.00  0.00    +0.000 A 
ATOM     24  C   UNL     1      -4.327 -18.942   2.519  0.00  0.00    +0.000 A 
ENDBRANCH   7  20
TORSDOF 1
ENDMDL
MODEL 3
REMARK VINA RESULT:      -5.6      3.441      6.102
REMARK  Name = JAK3_Inhibitor.pdbqt.pdb
REMARK  1 active torsions:
REMARK  status: ('A' for Active; 'I' for Inactive)
REMARK    1  A    between atoms: C_7  and  C_20
REMARK                            x       y       z     vdW  Elec       q    Type
REMARK                         _______ _______ _______ _____ _____    ______ ____
ROOT
ATOM      1  O   UNL     1     -10.785 -19.835   4.736  0.00  0.00    +0.000 OA
ATOM      2  N   UNL     1     -11.232 -18.051   3.286  0.00  0.00    +0.000 N 
ATOM      3  C   UNL     1     -12.685 -19.052   1.820  0.00  0.00    +0.000 A 
ATOM      4  C   UNL     1     -12.018 -17.869   2.148  0.00  0.00    +0.000 A 
ATOM      5  C   UNL     1     -12.281 -20.023   2.823  0.00  0.00    +0.000 C 
ATOM      6  C   UNL     1     -13.524 -19.116   0.726  0.00  0.00    +0.000 A 
ATOM      7  C   UNL     1     -13.704 -17.966  -0.062  0.00  0.00    +0.000 A 
ATOM      8  C   UNL     1     -11.336 -19.351   3.767  0.00  0.00    +0.000 C 
ATOM      9  C   UNL     1     -12.162 -16.717   1.408  0.00  0.00    +0.000 A 
ATOM     10  C   UNL     1     -12.646 -21.262   2.923  0.00  0.00    +0.000 C 
ATOM     11  C   UNL     1     -13.013 -16.786   0.302  0.00  0.00    +0.000 A 
ATOM     12  H   UNL     1     -10.655 -17.346   3.724  0.00  0.00    +0.000 HD
ATOM     13  N   UNL     1     -12.551 -23.431   4.079  0.00  0.00    +0.000 N 
ATOM     14  C   UNL     1     -13.015 -22.622   3.075  0.00  0.00    +0.000 C 
ATOM     15  C   UNL     1     -13.868 -23.365   2.292  0.00  0.00    +0.000 C 
ATOM     16  C   UNL     1     -13.096 -24.681   3.945  0.00  0.00    +0.000 C 
ATOM     17  C   UNL     1     -13.918 -24.668   2.842  0.00  0.00    +0.000 C 
ATOM     18  H   UNL     1     -11.906 -23.148   4.805  0.00  0.00    +0.000 HD
ENDROOT
BRANCH   7  20
ATOM     19  N   UNL     1     -15.310 -19.081  -3.289  0.00  0.00    +0.000 NA
ATOM     20  C   UNL     1     -14.587 -17.988  -1.234  0.00  0.00    +0.000 A 
ATOM     21  C   UNL     1     -15.541 -16.995  -1.464  0.00  0.00    +0.000 A 
ATOM     22  C   UNL     1     -14.530 -18.999  -2.189  0.00  0.00    +0.000 A 
ATOM     23  C   UNL     1     -16.369 -17.033  -2.580  0.00  0.00    +0.000 A 
ATOM     24  C   UNL     1     -16.213 -18.092  -3.456  0.00  0.00    +0.000 A 
ENDBRANCH   7  20
TORSDOF 1
ENDMDL
MODEL 4
REMARK VINA RESULT:      -5.5     11.556     14.862
REMARK  Name = JAK3_Inhibitor.pdbqt.pdb
REMARK  1 active torsions:
REMARK  status: ('A' for Active; 'I' for Inactive)
REMARK    1  A    between atoms: C_7  and  C_20
REMARK                            x       y       z     vdW  Elec       q    Type
REMARK                         _______ _______ _______ _____ _____    ______ ____
ROOT
ATOM      1  O   UNL     1       0.432 -13.720  -5.232  0.00  0.00    +0.000 OA
ATOM      2  N   UNL     1      -1.709 -14.206  -4.416  0.00  0.00    +0.000 N 
ATOM      3  C   UNL     1      -1.207 -15.784  -2.828  0.00  0.00    +0.000 A 
ATOM      4  C   UNL     1      -2.230 -15.060  -3.444  0.00  0.00    +0.000 A 
ATOM      5  C   UNL     1       0.024 -15.345  -3.464  0.00  0.00    +0.000 C 
ATOM      6  C   UNL     1      -1.482 -16.697  -1.830  0.00  0.00    +0.000 A 
ATOM      7  C   UNL     1      -2.817 -16.892  -1.435  0.00  0.00    +0.000 A 
ATOM      8  C   UNL     1      -0.326 -14.319  -4.494  0.00  0.00    +0.000 C 
ATOM      9  C   UNL     1      -3.553 -15.215  -3.092  0.00  0.00    +0.000 A 
ATOM     10  C   UNL     1       1.231 -15.744  -3.219  0.00  0.00    +0.000 C 
ATOM     11  C   UNL     1      -3.827 -16.139  -2.081  0.00  0.00    +0.000 A 
ATOM     12  H   UNL     1      -2.244 -13.578  -4.999  0.00  0.00    +0.000 HD
ATOM     13  N   UNL     1       3.648 -15.645  -3.670  0.00  0.00    +0.000 N 
ATOM     14  C   UNL     1       2.571 -16.146  -2.987  0.00  0.00    +0.000 C 
ATOM     15  C   UNL     1       3.037 -17.069  -2.080  0.00  0.00    +0.000 C 
ATOM     16  C   UNL     1       4.794 -16.237  -3.211  0.00  0.00    +0.000 C 
ATOM     17  C   UNL     1       4.443 -17.127  -2.222  0.00  0.00    +0.000 C 
ATOM     18  H   UNL     1       3.601 -14.946  -4.400  0.00  0.00    +0.000 HD
ENDROOT
BRANCH   7  20
ATOM     19  N   UNL     1      -2.507 -19.738   1.022  0.00  0.00    +0.000 NA
ATOM     20  C   UNL     1      -3.156 -17.851  -0.378  0.00  0.00    +0.000 A 
ATOM     21  C   UNL     1      -4.399 -17.848   0.259  0.00  0.00    +0.000 A 
ATOM     22  C   UNL     1      -2.261 -18.825   0.057  0.00  0.00    +0.000 A 
ATOM     23  C   UNL     1      -4.701 -18.765   1.259  0.00  0.00    +0.000 A 
ATOM     24  C   UNL     1      -3.725 -19.683   1.600  0.00  0.00    +0.000 A 
ENDBRANCH   7  20
TORSDOF 1
ENDMDL
MODEL 5
REMARK VINA RESULT:      -5.5     16.179     18.016
REMARK  Name = JAK3_Inhibitor.pdbqt.pdb
REMARK  1 active torsions:
REMARK  status: ('A' for Active; 'I' for Inactive)
REMARK    1  A    between atoms: C_7  and  C_20
REMARK                            x       y       z     vdW  Elec       q    Type
REMARK                         _______ _______ _______ _____ _____    ______ ____
ROOT
ATOM      1  O   UNL     1      -1.325 -20.216 -16.190  0.00  0.00    +0.000 OA
ATOM      2  N   UNL     1      -1.845 -18.207 -15.105  0.00  0.00    +0.000 N 
ATOM      3  C   UNL     1      -4.016 -17.911 -15.784  0.00  0.00    +0.000 A 
ATOM      4  C   UNL     1      -2.969 -17.383 -15.026  0.00  0.00    +0.000 A 
ATOM      5  C   UNL     1      -3.501 -19.138 -16.368  0.00  0.00    +0.000 C 
ATOM      6  C   UNL     1      -5.235 -17.267 -15.859  0.00  0.00    +0.000 A 
ATOM      7  C   UNL     1      -5.413 -16.063 -15.156  0.00  0.00    +0.000 A 
ATOM      8  C   UNL     1      -2.088 -19.311 -15.913  0.00  0.00    +0.000 C 
ATOM      9  C   UNL     1      -3.094 -16.208 -14.319  0.00  0.00    +0.000 A 
ATOM     10  C   UNL     1      -4.118 -19.966 -17.149  0.00  0.00    +0.000 C 
ATOM     11  C   UNL     1      -4.329 -15.560 -14.397  0.00  0.00    +0.000 A 
ATOM     12  H   UNL     1      -0.960 -18.044 -14.645  0.00  0.00    +0.000 HD
ATOM     13  N   UNL     1      -4.137 -22.030 -18.488  0.00  0.00    +0.000 N 
ATOM     14  C   UNL     1      -4.749 -20.903 -18.006  0.00  0.00    +0.000 C 
ATOM     15  C   UNL     1      -6.033 -20.875 -18.499  0.00  0.00    +0.000 C 
ATOM     16  C   UNL     1      -5.014 -22.720 -19.283  0.00  0.00    +0.000 C 
ATOM     17  C   UNL     1      -6.200 -22.023 -19.308  0.00  0.00    +0.000 C 
ATOM     18  H   UNL     1      -3.185 -22.308 -18.287  0.00  0.00    +0.000 HD
ENDROOT
BRANCH   7  20
ATOM     19  N   UNL     1      -7.904 -13.230 -15.226  0.00  0.00    +0.000 NA
ATOM     20  C   UNL     1      -6.691 -15.345 -15.206  0.00  0.00    +0.000 A 
ATOM     21  C   UNL     1      -7.916 -16.011 -15.279  0.00  0.00    +0.000 A 
ATOM     22  C   UNL     1      -6.764 -13.955 -15.183  0.00  0.00    +0.000 A 
ATOM     23  C   UNL     1      -9.118 -15.312 -15.326  0.00  0.00    +0.000 A 
ATOM     24  C   UNL     1      -9.055 -13.931 -15.297  0.00  0.00    +0.000 A 
ENDBRANCH   7  20
TORSDOF 1
ENDMDL
MODEL 6
REMARK VINA RESULT:      -5.4     11.899     15.332
REMARK  Name = JAK3_Inhibitor.pdbqt.pdb
REMARK  1 active torsions:
REMARK  status: ('A' for Active; 'I' for Inactive)
REMARK    1  A    between atoms: C_7  and  C_20
REMARK                            x       y       z     vdW  Elec       q    Type
REMARK                         _______ _______ _______ _____ _____    ______ ____
ROOT
ATOM      1  O   UNL     1       3.561 -15.731  -3.862  0.00  0.00    +0.000 OA
ATOM      2  N   UNL     1       2.879 -16.877  -1.937  0.00  0.00    +0.000 N 
ATOM      3  C   UNL     1       0.598 -16.768  -2.167  0.00  0.00    +0.000 A 
ATOM      4  C   UNL     1       1.651 -17.225  -1.372  0.00  0.00    +0.000 A 
ATOM      5  C   UNL     1       1.221 -16.094  -3.295  0.00  0.00    +0.000 C 
ATOM      6  C   UNL     1      -0.715 -16.994  -1.809  0.00  0.00    +0.000 A 
ATOM      7  C   UNL     1      -0.985 -17.698  -0.623  0.00  0.00    +0.000 A 
ATOM      8  C   UNL     1       2.704 -16.177  -3.125  0.00  0.00    +0.000 C 
ATOM      9  C   UNL     1       1.438 -17.920  -0.202  0.00  0.00    +0.000 A 
ATOM     10  C   UNL     1       0.637 -15.510  -4.292  0.00  0.00    +0.000 C 
ATOM     11  C   UNL     1       0.107 -18.147   0.157  0.00  0.00    +0.000 A 
ATOM     12  H   UNL     1       3.788 -17.094  -1.554  0.00  0.00    +0.000 HD
ATOM     13  N   UNL     1       0.762 -14.256  -6.406  0.00  0.00    +0.000 N 
ATOM     14  C   UNL     1       0.046 -14.859  -5.404  0.00  0.00    +0.000 C 
ATOM     15  C   UNL     1      -1.291 -14.707  -5.690  0.00  0.00    +0.000 C 
ATOM     16  C   UNL     1      -0.102 -13.723  -7.325  0.00  0.00    +0.000 C 
ATOM     17  C   UNL     1      -1.385 -13.989  -6.905  0.00  0.00    +0.000 C 
ATOM     18  H   UNL     1       1.771 -14.213  -6.456  0.00  0.00    +0.000 HD
ENDROOT
BRANCH   7  20
ATOM     19  N   UNL     1      -3.953 -19.360   1.010  0.00  0.00    +0.000 NA
ATOM     20  C   UNL     1      -2.366 -17.963  -0.203  0.00  0.00    +0.000 A 
ATOM     21  C   UNL     1      -3.427 -17.132  -0.569  0.00  0.00    +0.000 A 
ATOM     22  C   UNL     1      -2.706 -19.057   0.587  0.00  0.00    +0.000 A 
ATOM     23  C   UNL     1      -4.728 -17.399  -0.161  0.00  0.00    +0.000 A 
ATOM     24  C   UNL     1      -4.935 -18.519   0.623  0.00  0.00    +0.000 A 
ENDBRANCH   7  20
TORSDOF 1
ENDMDL
MODEL 7
REMARK VINA RESULT:      -5.3     16.680     18.362
REMARK  Name = JAK3_Inhibitor.pdbqt.pdb
REMARK  1 active torsions:
REMARK  status: ('A' for Active; 'I' for Inactive)
REMARK    1  A    between atoms: C_7  and  C_20
REMARK                            x       y       z     vdW  Elec       q    Type
REMARK                         _______ _______ _______ _____ _____    ______ ____
ROOT
ATOM      1  O   UNL     1      -7.782 -17.352 -15.970  0.00  0.00    +0.000 OA
ATOM      2  N   UNL     1      -6.200 -19.061 -16.220  0.00  0.00    +0.000 N 
ATOM      3  C   UNL     1      -4.284 -17.955 -15.612  0.00  0.00    +0.000 A 
ATOM      4  C   UNL     1      -4.820 -19.171 -16.042  0.00  0.00    +0.000 A 
ATOM      5  C   UNL     1      -5.409 -17.039 -15.520  0.00  0.00    +0.000 C 
ATOM      6  C   UNL     1      -2.932 -17.819 -15.369  0.00  0.00    +0.000 A 
ATOM      7  C   UNL     1      -2.092 -18.930 -15.559  0.00  0.00    +0.000 A 
ATOM      8  C   UNL     1      -6.644 -17.779 -15.920  0.00  0.00    +0.000 C 
ATOM      9  C   UNL     1      -4.039 -20.287 -16.242  0.00  0.00    +0.000 A 
ATOM     10  C   UNL     1      -5.392 -15.794 -15.163  0.00  0.00    +0.000 C 
ATOM     11  C   UNL     1      -2.671 -20.146 -15.994  0.00  0.00    +0.000 A 
ATOM     12  H   UNL     1      -6.816 -19.801 -16.524  0.00  0.00    +0.000 HD
ATOM     13  N   UNL     1      -6.573 -13.677 -14.738  0.00  0.00    +0.000 N 
ATOM     14  C   UNL     1      -5.428 -14.430 -14.778  0.00  0.00    +0.000 C 
ATOM     15  C   UNL     1      -4.380 -13.628 -14.388  0.00  0.00    +0.000 C 
ATOM     16  C   UNL     1      -6.267 -12.406 -14.329  0.00  0.00    +0.000 C 
ATOM     17  C   UNL     1      -4.911 -12.348 -14.104  0.00  0.00    +0.000 C 
ATOM     18  H   UNL     1      -7.498 -14.010 -14.975  0.00  0.00    +0.000 HD
ENDROOT
BRANCH   7  20
ATOM     19  N   UNL     1       1.634 -19.295 -16.034  0.00  0.00    +0.000 NA
ATOM     20  C   UNL     1      -0.649 -18.832 -15.313  0.00  0.00    +0.000 A 
ATOM     21  C   UNL     1      -0.129 -18.214 -14.174  0.00  0.00    +0.000 A 
ATOM     22  C   UNL     1       0.293 -19.349 -16.198  0.00  0.00    +0.000 A 
ATOM     23  C   UNL     1       1.242 -18.131 -13.958  0.00  0.00    +0.000 A 
ATOM     24  C   UNL     1       2.074 -18.685 -14.914  0.00  0.00    +0.000 A 
ENDBRANCH   7  20
TORSDOF 1
ENDMDL
MODEL 8
REMARK VINA RESULT:      -5.2      3.566      8.442
REMARK  Name = JAK3_Inhibitor.pdbqt.pdb
REMARK  1 active torsions:
REMARK  status: ('A' for Active; 'I' for Inactive)
REMARK    1  A    between atoms: C_7  and  C_20
REMARK                            x       y       z     vdW  Elec       q    Type
REMARK                         _______ _______ _______ _____ _____    ______ ____
ROOT
ATOM      1  O   UNL     1     -12.250 -15.160  -0.082  0.00  0.00    +0.000 OA
ATOM      2  N   UNL     1     -11.435 -16.362   1.757  0.00  0.00    +0.000 N 
ATOM      3  C   UNL     1     -12.580 -18.335   1.512  0.00  0.00    +0.000 A 
ATOM      4  C   UNL     1     -11.652 -17.635   2.286  0.00  0.00    +0.000 A 
ATOM      5  C   UNL     1     -12.959 -17.432   0.438  0.00  0.00    +0.000 C 
ATOM      6  C   UNL     1     -12.956 -19.621   1.843  0.00  0.00    +0.000 A 
ATOM      7  C   UNL     1     -12.387 -20.226   2.977  0.00  0.00    +0.000 A 
ATOM      8  C   UNL     1     -12.202 -16.155   0.616  0.00  0.00    +0.000 C 
ATOM      9  C   UNL     1     -11.066 -18.184   3.405  0.00  0.00    +0.000 A 
ATOM     10  C   UNL     1     -13.798 -17.649  -0.524  0.00  0.00    +0.000 C 
ATOM     11  C   UNL     1     -11.449 -19.486   3.735  0.00  0.00    +0.000 A 
ATOM     12  H   UNL     1     -10.808 -15.665   2.133  0.00  0.00    +0.000 HD
ATOM     13  N   UNL     1     -14.972 -16.889  -2.548  0.00  0.00    +0.000 N 
ATOM     14  C   UNL     1     -14.706 -17.838  -1.596  0.00  0.00    +0.000 C 
ATOM     15  C   UNL     1     -15.464 -18.950  -1.884  0.00  0.00    +0.000 C 
ATOM     16  C   UNL     1     -15.889 -17.382  -3.438  0.00  0.00    +0.000 C 
ATOM     17  C   UNL     1     -16.212 -18.661  -3.048  0.00  0.00    +0.000 C 
ATOM     18  H   UNL     1     -14.555 -15.968  -2.586  0.00  0.00    +0.000 HD
ENDROOT
BRANCH   7  20
ATOM     19  N   UNL     1     -13.074 -23.255   5.119  0.00  0.00    +0.000 NA
ATOM     20  C   UNL     1     -12.756 -21.592   3.365  0.00  0.00    +0.000 A 
ATOM     21  C   UNL     1     -13.139 -22.554   2.428  0.00  0.00    +0.000 A 
ATOM     22  C   UNL     1     -12.747 -22.015   4.691  0.00  0.00    +0.000 A 
ATOM     23  C   UNL     1     -13.486 -23.843   2.816  0.00  0.00    +0.000 A 
ATOM     24  C   UNL     1     -13.437 -24.139   4.167  0.00  0.00    +0.000 A 
ENDBRANCH   7  20
TORSDOF 1
ENDMDL
MODEL 9
REMARK VINA RESULT:      -5.1     12.064     15.267
REMARK  Name = JAK3_Inhibitor.pdbqt.pdb
REMARK  1 active torsions:
REMARK  status: ('A' for Active; 'I' for Inactive)
REMARK    1  A    between atoms: C_7  and  C_20
REMARK                            x       y       z     vdW  Elec       q    Type
REMARK                         _______ _______ _______ _____ _____    ______ ____
ROOT
ATOM      1  O   UNL     1       3.760 -20.626  -0.822  0.00  0.00    +0.000 OA
ATOM      2  N   UNL     1       1.748 -21.224   0.217  0.00  0.00    +0.000 N 
ATOM      3  C   UNL     1       0.465 -19.381  -0.255  0.00  0.00    +0.000 A 
ATOM      4  C   UNL     1       0.495 -20.629   0.371  0.00  0.00    +0.000 A 
ATOM      5  C   UNL     1       1.787 -19.198  -0.831  0.00  0.00    +0.000 C 
ATOM      6  C   UNL     1      -0.674 -18.602  -0.235  0.00  0.00    +0.000 A 
ATOM      7  C   UNL     1      -1.816 -19.084   0.427  0.00  0.00    +0.000 A 
ATOM      8  C   UNL     1       2.605 -20.408  -0.512  0.00  0.00    +0.000 C 
ATOM      9  C   UNL     1      -0.598 -21.145   1.032  0.00  0.00    +0.000 A 
ATOM     10  C   UNL     1       2.225 -18.183  -1.506  0.00  0.00    +0.000 C 
ATOM     11  C   UNL     1      -1.749 -20.353   1.049  0.00  0.00    +0.000 A 
ATOM     12  H   UNL     1       2.021 -22.127   0.577  0.00  0.00    +0.000 HD
ATOM     13  N   UNL     1       4.033 -17.056  -2.737  0.00  0.00    +0.000 N 
ATOM     14  C   UNL     1       2.752 -17.098  -2.251  0.00  0.00    +0.000 C 
ATOM     15  C   UNL     1       2.122 -15.932  -2.618  0.00  0.00    +0.000 C 
ATOM     16  C   UNL     1       4.227 -15.878  -3.408  0.00  0.00    +0.000 C 
ATOM     17  C   UNL     1       3.055 -15.160  -3.349  0.00  0.00    +0.000 C 
ATOM     18  H   UNL     1       4.726 -17.783  -2.618  0.00  0.00    +0.000 HD
ENDROOT
BRANCH   7  20
ATOM     19  N   UNL     1      -4.217 -16.206  -0.014  0.00  0.00    +0.000 NA
ATOM     20  C   UNL     1      -3.050 -18.290   0.473  0.00  0.00    +0.000 A 
ATOM     21  C   UNL     1      -4.235 -18.789   1.018  0.00  0.00    +0.000 A 
ATOM     22  C   UNL     1      -3.117 -16.992  -0.023  0.00  0.00    +0.000 A 
ATOM     23  C   UNL     1      -5.394 -18.021   1.053  0.00  0.00    +0.000 A 
ATOM     24  C   UNL     1      -5.330 -16.744   0.526  0.00  0.00    +0.000 A 
ENDBRANCH   7  20
TORSDOF 1
ENDMDL
