MODEL 1
REMARK VINA RESULT:      -5.9      0.000      0.000
REMARK  Name = Leptomycin.pdbqt.pdb
REMARK  12 active torsions:
REMARK  status: ('A' for Active; 'I' for Inactive)
REMARK    1  A    between atoms: C_2  and  C_4
REMARK    2  A    between atoms: C_5  and  C_6
REMARK    3  A    between atoms: C_6  and  C_7
REMARK    4  A    between atoms: C_10  and  C_11
REMARK    5  A    between atoms: C_10  and  C_21
REMARK    6  A    between atoms: C_12  and  C_13
REMARK    7  A    between atoms: C_23  and  C_25
REMARK    8  A    between atoms: C_25  and  C_27
REMARK    9  A    between atoms: C_27  and  C_29
REMARK   10  A    between atoms: C_29  and  O_30
REMARK   11  A    between atoms: C_29  and  C_32
REMARK   12  A    between atoms: C_38  and  O_40
REMARK                            x       y       z     vdW  Elec       q    Type
REMARK                         _______ _______ _______ _____ _____    ______ ____
ROOT
ATOM      1  C   UNL     1       2.993 -30.371 -12.258  0.00  0.00    +0.000 C 
ATOM      2  C   UNL     1       1.897 -30.994 -11.972  0.00  0.00    +0.000 C 
ATOM      3  C   UNL     1       0.632 -30.586 -12.669  0.00  0.00    +0.000 C 
ATOM      4  C   UNL     1       4.232 -29.755 -12.570  0.00  0.00    +0.000 C 
ATOM      5  C   UNL     1       4.484 -28.424 -11.880  0.00  0.00    +0.000 C 
ENDROOT
BRANCH   2   6
ATOM      6  C   UNL     1       1.977 -32.299 -11.425  0.00  0.00    +0.000 C 
ATOM      7  C   UNL     1       2.048 -33.429 -11.022  0.00  0.00    +0.000 C 
BRANCH   7   8
ATOM      8  C   UNL     1       2.137 -34.906 -10.629  0.00  0.00    +0.000 C 
BRANCH   8   9
ATOM      9  C   UNL     1       2.147 -36.311 -10.449  0.00  0.00    +0.000 C 
ATOM     10  C   UNL     1       3.279 -37.119 -11.002  0.00  0.00    +0.000 C 
ATOM     11  C   UNL     1       1.052 -36.982  -9.851  0.00  0.00    +0.000 C 
ATOM     12  C   UNL     1      -0.039 -37.419  -9.300  0.00  0.00    +0.000 C 
BRANCH  12  13
ATOM     13  C   UNL     1      -1.048 -36.444  -9.074  0.00  0.00    +0.000 C 
ATOM     14  C   UNL     1      -1.964 -35.672  -8.993  0.00  0.00    +0.000 C 
BRANCH  14  15
ATOM     15  C   UNL     1      -3.104 -34.828  -9.003  0.00  0.00    +0.000 A 
ATOM     16  O   UNL     1      -4.372 -35.443  -8.623  0.00  0.00    +0.000 OA
ATOM     17  C   UNL     1      -5.558 -34.716  -8.561  0.00  0.00    +0.000 A 
ATOM     18  O   UNL     1      -6.636 -35.173  -8.215  0.00  0.00    +0.000 OA
ATOM     19  C   UNL     1      -5.360 -33.345  -8.931  0.00  0.00    +0.000 A 
ATOM     20  C   UNL     1      -4.350 -32.798  -9.254  0.00  0.00    +0.000 A 
ATOM     21  C   UNL     1      -3.076 -33.402  -9.349  0.00  0.00    +0.000 A 
ATOM     22  C   UNL     1      -1.867 -32.602  -9.720  0.00  0.00    +0.000 C 
ENDBRANCH  14  15
ENDBRANCH  12  13
BRANCH  12  23
ATOM     23  C   UNL     1      -0.155 -38.798  -8.992  0.00  0.00    +0.000 C 
ATOM     24  C   UNL     1      -0.272 -40.290  -8.659  0.00  0.00    +0.000 C 
ENDBRANCH  12  23
ENDBRANCH   8   9
ENDBRANCH   7   8
ENDBRANCH   2   6
BRANCH   4  25
ATOM     25  C   UNL     1       5.368 -30.608 -13.041  0.00  0.00    +0.000 C 
ATOM     26  O   UNL     1       5.593 -30.805 -14.239  0.00  0.00    +0.000 OA
BRANCH  25  27
ATOM     27  C   UNL     1       6.199 -31.272 -11.991  0.00  0.00    +0.000 C 
ATOM     28  C   UNL     1       7.616 -30.771 -11.724  0.00  0.00    +0.000 C 
BRANCH  27  29
ATOM     29  C   UNL     1       5.754 -32.555 -11.458  0.00  0.00    +0.000 C 
BRANCH  29  30
ATOM     30  C   UNL     1       5.444 -32.906 -10.083  0.00  0.00    +0.000 C 
ATOM     31  C   UNL     1       5.877 -34.242  -9.518  0.00  0.00    +0.000 C 
ATOM     32  C   UNL     1       4.901 -31.999  -9.144  0.00  0.00    +0.000 C 
ATOM     33  C   UNL     1       4.346 -31.146  -8.167  0.00  0.00    +0.000 C 
ATOM     34  C   UNL     1       3.233 -30.225  -8.562  0.00  0.00    +0.000 C 
ATOM     35  C   UNL     1       4.867 -31.078  -6.991  0.00  0.00    +0.000 C 
ATOM     36  C   UNL     1       5.468 -31.007  -5.704  0.00  0.00    +0.000 C 
ATOM     37  O   UNL     1       6.625 -30.670  -5.533  0.00  0.00    +0.000 OA
BRANCH  36  38
ATOM     38  O   UNL     1       4.655 -31.365  -4.699  0.00  0.00    +0.000 OA
ATOM     39  H   UNL     1       4.403 -30.519  -4.274  0.00  0.00    +0.000 HD
ENDBRANCH  36  38
ENDBRANCH  29  30
BRANCH  29  40
ATOM     40  O   UNL     1       5.565 -33.570 -12.399  0.00  0.00    +0.000 OA
ATOM     41  H   UNL     1       4.617 -33.703 -12.609  0.00  0.00    +0.000 HD
ENDBRANCH  29  40
ENDBRANCH  27  29
ENDBRANCH  25  27
ENDBRANCH   4  25
TORSDOF 12
ENDMDL
MODEL 2
REMARK VINA RESULT:      -5.7     12.634     17.737
REMARK  Name = Leptomycin.pdbqt.pdb
REMARK  12 active torsions:
REMARK  status: ('A' for Active; 'I' for Inactive)
REMARK    1  A    between atoms: C_2  and  C_4
REMARK    2  A    between atoms: C_5  and  C_6
REMARK    3  A    between atoms: C_6  and  C_7
REMARK    4  A    between atoms: C_10  and  C_11
REMARK    5  A    between atoms: C_10  and  C_21
REMARK    6  A    between atoms: C_12  and  C_13
REMARK    7  A    between atoms: C_23  and  C_25
REMARK    8  A    between atoms: C_25  and  C_27
REMARK    9  A    between atoms: C_27  and  C_29
REMARK   10  A    between atoms: C_29  and  O_30
REMARK   11  A    between atoms: C_29  and  C_32
REMARK   12  A    between atoms: C_38  and  O_40
REMARK                            x       y       z     vdW  Elec       q    Type
REMARK                         _______ _______ _______ _____ _____    ______ ____
ROOT
ATOM      1  C   UNL     1      -9.589 -32.577  -0.106  0.00  0.00    +0.000 C 
ATOM      2  C   UNL     1     -10.308 -32.454   0.962  0.00  0.00    +0.000 C 
ATOM      3  C   UNL     1     -11.544 -33.294   1.101  0.00  0.00    +0.000 C 
ATOM      4  C   UNL     1      -8.738 -32.707  -1.232  0.00  0.00    +0.000 C 
ATOM      5  C   UNL     1      -9.186 -31.949  -2.472  0.00  0.00    +0.000 C 
ENDROOT
BRANCH   2   6
ATOM      6  C   UNL     1      -9.702 -31.943   2.137  0.00  0.00    +0.000 C 
ATOM      7  C   UNL     1      -9.230 -31.546   3.168  0.00  0.00    +0.000 C 
BRANCH   7   8
ATOM      8  C   UNL     1      -8.713 -31.110   4.542  0.00  0.00    +0.000 C 
BRANCH   8   9
ATOM      9  C   UNL     1      -8.129 -30.568   5.713  0.00  0.00    +0.000 C 
ATOM     10  C   UNL     1      -8.424 -29.151   6.097  0.00  0.00    +0.000 C 
ATOM     11  C   UNL     1      -7.184 -31.303   6.470  0.00  0.00    +0.000 C 
ATOM     12  C   UNL     1      -6.334 -32.113   7.023  0.00  0.00    +0.000 C 
BRANCH  12  13
ATOM     13  C   UNL     1      -6.086 -33.320   6.316  0.00  0.00    +0.000 C 
ATOM     14  C   UNL     1      -5.969 -34.399   5.802  0.00  0.00    +0.000 C 
BRANCH  14  15
ATOM     15  C   UNL     1      -5.930 -35.718   5.279  0.00  0.00    +0.000 A 
ATOM     16  O   UNL     1      -5.153 -35.911   4.059  0.00  0.00    +0.000 OA
ATOM     17  C   UNL     1      -5.008 -37.161   3.464  0.00  0.00    +0.000 A 
ATOM     18  O   UNL     1      -4.341 -37.383   2.465  0.00  0.00    +0.000 OA
ATOM     19  C   UNL     1      -5.722 -38.176   4.181  0.00  0.00    +0.000 A 
ATOM     20  C   UNL     1      -6.373 -38.068   5.175  0.00  0.00    +0.000 A 
ATOM     21  C   UNL     1      -6.597 -36.872   5.893  0.00  0.00    +0.000 A 
ATOM     22  C   UNL     1      -7.395 -36.867   7.157  0.00  0.00    +0.000 C 
ENDBRANCH  14  15
ENDBRANCH  12  13
BRANCH  12  23
ATOM     23  C   UNL     1      -5.715 -31.742   8.242  0.00  0.00    +0.000 C 
ATOM     24  C   UNL     1      -5.043 -31.332   9.559  0.00  0.00    +0.000 C 
ENDBRANCH  12  23
ENDBRANCH   8   9
ENDBRANCH   7   8
ENDBRANCH   2   6
BRANCH   4  25
ATOM     25  C   UNL     1      -7.299 -33.055  -1.018  0.00  0.00    +0.000 C 
ATOM     26  O   UNL     1      -6.428 -32.193  -0.857  0.00  0.00    +0.000 OA
BRANCH  25  27
ATOM     27  C   UNL     1      -6.936 -34.503  -1.065  0.00  0.00    +0.000 C 
ATOM     28  C   UNL     1      -6.631 -35.161  -2.409  0.00  0.00    +0.000 C 
BRANCH  27  29
ATOM     29  C   UNL     1      -7.168 -35.319   0.123  0.00  0.00    +0.000 C 
BRANCH  29  30
ATOM     30  C   UNL     1      -8.398 -35.957   0.557  0.00  0.00    +0.000 C 
ATOM     31  C   UNL     1      -9.226 -36.765  -0.419  0.00  0.00    +0.000 C 
ATOM     32  C   UNL     1      -8.811 -36.028   1.908  0.00  0.00    +0.000 C 
ATOM     33  C   UNL     1      -9.284 -36.119   3.234  0.00  0.00    +0.000 C 
ATOM     34  C   UNL     1      -9.166 -34.922   4.125  0.00  0.00    +0.000 C 
ATOM     35  C   UNL     1      -9.699 -37.246   3.700  0.00  0.00    +0.000 C 
ATOM     36  C   UNL     1     -10.137 -38.503   4.200  0.00  0.00    +0.000 C 
ATOM     37  O   UNL     1      -9.417 -39.483   4.249  0.00  0.00    +0.000 OA
BRANCH  36  38
ATOM     38  O   UNL     1     -11.421 -38.520   4.592  0.00  0.00    +0.000 OA
ATOM     39  H   UNL     1     -11.764 -37.637   4.344  0.00  0.00    +0.000 HD
ENDBRANCH  36  38
ENDBRANCH  29  30
BRANCH  29  40
ATOM     40  O   UNL     1      -6.050 -35.548   0.928  0.00  0.00    +0.000 OA
ATOM     41  H   UNL     1      -5.969 -34.882   1.641  0.00  0.00    +0.000 HD
ENDBRANCH  29  40
ENDBRANCH  27  29
ENDBRANCH  25  27
ENDBRANCH   4  25
TORSDOF 12
ENDMDL
MODEL 3
REMARK VINA RESULT:      -5.2      3.323      9.202
REMARK  Name = Leptomycin.pdbqt.pdb
REMARK  12 active torsions:
REMARK  status: ('A' for Active; 'I' for Inactive)
REMARK    1  A    between atoms: C_2  and  C_4
REMARK    2  A    between atoms: C_5  and  C_6
REMARK    3  A    between atoms: C_6  and  C_7
REMARK    4  A    between atoms: C_10  and  C_11
REMARK    5  A    between atoms: C_10  and  C_21
REMARK    6  A    between atoms: C_12  and  C_13
REMARK    7  A    between atoms: C_23  and  C_25
REMARK    8  A    between atoms: C_25  and  C_27
REMARK    9  A    between atoms: C_27  and  C_29
REMARK   10  A    between atoms: C_29  and  O_30
REMARK   11  A    between atoms: C_29  and  C_32
REMARK   12  A    between atoms: C_38  and  O_40
REMARK                            x       y       z     vdW  Elec       q    Type
REMARK                         _______ _______ _______ _____ _____    ______ ____
ROOT
ATOM      1  C   UNL     1      -0.190 -35.896 -10.450  0.00  0.00    +0.000 C 
ATOM      2  C   UNL     1       1.085 -35.679 -10.446  0.00  0.00    +0.000 C 
ATOM      3  C   UNL     1       1.995 -36.713 -11.043  0.00  0.00    +0.000 C 
ATOM      4  C   UNL     1      -1.598 -36.059 -10.474  0.00  0.00    +0.000 C 
ATOM      5  C   UNL     1      -2.164 -36.945  -9.375  0.00  0.00    +0.000 C 
ENDROOT
BRANCH   2   6
ATOM      6  C   UNL     1       1.550 -34.344 -10.349  0.00  0.00    +0.000 C 
ATOM      7  C   UNL     1       1.992 -33.233 -10.229  0.00  0.00    +0.000 C 
BRANCH   7   8
ATOM      8  C   UNL     1       2.645 -31.867 -10.003  0.00  0.00    +0.000 C 
BRANCH   8   9
ATOM      9  C   UNL     1       3.298 -30.673  -9.610  0.00  0.00    +0.000 C 
ATOM     10  C   UNL     1       3.673 -30.473  -8.174  0.00  0.00    +0.000 C 
ATOM     11  C   UNL     1       3.505 -29.614 -10.528  0.00  0.00    +0.000 C 
ATOM     12  C   UNL     1       3.594 -28.754 -11.497  0.00  0.00    +0.000 C 
BRANCH  12  13
ATOM     13  C   UNL     1       2.953 -29.126 -12.709  0.00  0.00    +0.000 C 
ATOM     14  C   UNL     1       2.299 -29.466 -13.658  0.00  0.00    +0.000 C 
BRANCH  14  15
ATOM     15  C   UNL     1       1.420 -29.879 -14.691  0.00  0.00    +0.000 A 
ATOM     16  O   UNL     1       0.424 -30.884 -14.335  0.00  0.00    +0.000 OA
ATOM     17  C   UNL     1      -0.519 -31.349 -15.248  0.00  0.00    +0.000 A 
ATOM     18  O   UNL     1      -1.395 -32.161 -14.991  0.00  0.00    +0.000 OA
ATOM     19  C   UNL     1      -0.356 -30.741 -16.535  0.00  0.00    +0.000 A 
ATOM     20  C   UNL     1       0.444 -29.923 -16.877  0.00  0.00    +0.000 A 
ATOM     21  C   UNL     1       1.446 -29.353 -16.061  0.00  0.00    +0.000 A 
ATOM     22  C   UNL     1       2.365 -28.297 -16.588  0.00  0.00    +0.000 C 
ENDBRANCH  14  15
ENDBRANCH  12  13
BRANCH  12  23
ATOM     23  C   UNL     1       4.281 -27.534 -11.280  0.00  0.00    +0.000 C 
ATOM     24  C   UNL     1       5.024 -26.212 -11.052  0.00  0.00    +0.000 C 
ENDBRANCH  12  23
ENDBRANCH   8   9
ENDBRANCH   7   8
ENDBRANCH   2   6
BRANCH   4  25
ATOM     25  C   UNL     1      -2.439 -35.011 -11.130  0.00  0.00    +0.000 C 
ATOM     26  O   UNL     1      -2.329 -34.730 -12.328  0.00  0.00    +0.000 OA
BRANCH  25  27
ATOM     27  C   UNL     1      -3.393 -34.261 -10.258  0.00  0.00    +0.000 C 
ATOM     28  C   UNL     1      -4.893 -34.508 -10.394  0.00  0.00    +0.000 C 
BRANCH  27  29
ATOM     29  C   UNL     1      -2.897 -33.108  -9.513  0.00  0.00    +0.000 C 
BRANCH  29  30
ATOM     30  C   UNL     1      -3.207 -32.708  -8.152  0.00  0.00    +0.000 C 
ATOM     31  C   UNL     1      -3.590 -31.276  -7.843  0.00  0.00    +0.000 C 
ATOM     32  C   UNL     1      -3.352 -33.619  -7.079  0.00  0.00    +0.000 C 
ATOM     33  C   UNL     1      -3.494 -34.475  -5.967  0.00  0.00    +0.000 C 
ATOM     34  C   UNL     1      -2.525 -35.605  -5.798  0.00  0.00    +0.000 C 
ATOM     35  C   UNL     1      -4.508 -34.357  -5.181  0.00  0.00    +0.000 C 
ATOM     36  C   UNL     1      -5.643 -34.220  -4.335  0.00  0.00    +0.000 C 
ATOM     37  O   UNL     1      -6.785 -34.336  -4.739  0.00  0.00    +0.000 OA
BRANCH  36  38
ATOM     38  O   UNL     1      -5.344 -33.930  -3.060  0.00  0.00    +0.000 OA
ATOM     39  H   UNL     1      -5.262 -32.955  -3.042  0.00  0.00    +0.000 HD
ENDBRANCH  36  38
ENDBRANCH  29  30
BRANCH  29  40
ATOM     40  O   UNL     1      -1.974 -32.304 -10.185  0.00  0.00    +0.000 OA
ATOM     41  H   UNL     1      -1.171 -32.140  -9.648  0.00  0.00    +0.000 HD
ENDBRANCH  29  40
ENDBRANCH  27  29
ENDBRANCH  25  27
ENDBRANCH   4  25
TORSDOF 12
ENDMDL
MODEL 4
REMARK VINA RESULT:      -5.2     12.811     17.707
REMARK  Name = Leptomycin.pdbqt.pdb
REMARK  12 active torsions:
REMARK  status: ('A' for Active; 'I' for Inactive)
REMARK    1  A    between atoms: C_2  and  C_4
REMARK    2  A    between atoms: C_5  and  C_6
REMARK    3  A    between atoms: C_6  and  C_7
REMARK    4  A    between atoms: C_10  and  C_11
REMARK    5  A    between atoms: C_10  and  C_21
REMARK    6  A    between atoms: C_12  and  C_13
REMARK    7  A    between atoms: C_23  and  C_25
REMARK    8  A    between atoms: C_25  and  C_27
REMARK    9  A    between atoms: C_27  and  C_29
REMARK   10  A    between atoms: C_29  and  O_30
REMARK   11  A    between atoms: C_29  and  C_32
REMARK   12  A    between atoms: C_38  and  O_40
REMARK                            x       y       z     vdW  Elec       q    Type
REMARK                         _______ _______ _______ _____ _____    ______ ____
ROOT
ATOM      1  C   UNL     1      -9.616 -32.533  -0.075  0.00  0.00    +0.000 C 
ATOM      2  C   UNL     1     -10.332 -32.393   0.993  0.00  0.00    +0.000 C 
ATOM      3  C   UNL     1     -11.586 -33.207   1.131  0.00  0.00    +0.000 C 
ATOM      4  C   UNL     1      -8.767 -32.683  -1.201  0.00  0.00    +0.000 C 
ATOM      5  C   UNL     1      -9.198 -31.916  -2.441  0.00  0.00    +0.000 C 
ENDROOT
BRANCH   2   6
ATOM      6  C   UNL     1      -9.716 -31.894   2.167  0.00  0.00    +0.000 C 
ATOM      7  C   UNL     1      -9.243 -31.496   3.197  0.00  0.00    +0.000 C 
BRANCH   7   8
ATOM      8  C   UNL     1      -8.740 -31.037   4.569  0.00  0.00    +0.000 C 
BRANCH   8   9
ATOM      9  C   UNL     1      -8.129 -30.518   5.737  0.00  0.00    +0.000 C 
ATOM     10  C   UNL     1      -8.387 -29.098   6.136  0.00  0.00    +0.000 C 
ATOM     11  C   UNL     1      -7.191 -31.280   6.475  0.00  0.00    +0.000 C 
ATOM     12  C   UNL     1      -6.352 -32.114   7.010  0.00  0.00    +0.000 C 
BRANCH  12  13
ATOM     13  C   UNL     1      -6.141 -33.321   6.289  0.00  0.00    +0.000 C 
ATOM     14  C   UNL     1      -6.038 -34.402   5.778  0.00  0.00    +0.000 C 
BRANCH  14  15
ATOM     15  C   UNL     1      -5.998 -35.727   5.273  0.00  0.00    +0.000 A 
ATOM     16  O   UNL     1      -5.218 -35.938   4.058  0.00  0.00    +0.000 OA
ATOM     17  C   UNL     1      -5.072 -37.196   3.480  0.00  0.00    +0.000 A 
ATOM     18  O   UNL     1      -4.403 -37.432   2.486  0.00  0.00    +0.000 OA
ATOM     19  C   UNL     1      -5.789 -38.201   4.209  0.00  0.00    +0.000 A 
ATOM     20  C   UNL     1      -6.443 -38.079   5.200  0.00  0.00    +0.000 A 
ATOM     21  C   UNL     1      -6.668 -36.873   5.900  0.00  0.00    +0.000 A 
ATOM     22  C   UNL     1      -7.470 -36.850   7.163  0.00  0.00    +0.000 C 
ENDBRANCH  14  15
ENDBRANCH  12  13
BRANCH  12  23
ATOM     23  C   UNL     1      -5.709 -31.767   8.223  0.00  0.00    +0.000 C 
ATOM     24  C   UNL     1      -5.010 -31.399   9.538  0.00  0.00    +0.000 C 
ENDBRANCH  12  23
ENDBRANCH   8   9
ENDBRANCH   7   8
ENDBRANCH   2   6
BRANCH   4  25
ATOM     25  C   UNL     1      -7.336 -33.061  -0.985  0.00  0.00    +0.000 C 
ATOM     26  O   UNL     1      -6.458 -32.221  -0.760  0.00  0.00    +0.000 OA
BRANCH  25  27
ATOM     27  C   UNL     1      -6.989 -34.509  -1.112  0.00  0.00    +0.000 C 
ATOM     28  C   UNL     1      -6.990 -35.166  -2.490  0.00  0.00    +0.000 C 
BRANCH  27  29
ATOM     29  C   UNL     1      -6.949 -35.325   0.098  0.00  0.00    +0.000 C 
BRANCH  29  30
ATOM     30  C   UNL     1      -8.058 -35.833   0.885  0.00  0.00    +0.000 C 
ATOM     31  C   UNL     1      -8.302 -35.315   2.286  0.00  0.00    +0.000 C 
ATOM     32  C   UNL     1      -9.067 -36.678   0.367  0.00  0.00    +0.000 C 
ATOM     33  C   UNL     1     -10.093 -37.533  -0.087  0.00  0.00    +0.000 C 
ATOM     34  C   UNL     1      -9.733 -38.679  -0.982  0.00  0.00    +0.000 C 
ATOM     35  C   UNL     1     -11.326 -37.262   0.169  0.00  0.00    +0.000 C 
ATOM     36  C   UNL     1     -12.681 -36.935   0.448  0.00  0.00    +0.000 C 
ATOM     37  O   UNL     1     -13.201 -35.899   0.080  0.00  0.00    +0.000 OA
BRANCH  36  38
ATOM     38  O   UNL     1     -13.330 -37.861   1.172  0.00  0.00    +0.000 OA
ATOM     39  H   UNL     1     -13.971 -38.257   0.546  0.00  0.00    +0.000 HD
ENDBRANCH  36  38
ENDBRANCH  29  30
BRANCH  29  40
ATOM     40  O   UNL     1      -5.675 -35.697   0.534  0.00  0.00    +0.000 OA
ATOM     41  H   UNL     1      -5.656 -36.620   0.861  0.00  0.00    +0.000 HD
ENDBRANCH  29  40
ENDBRANCH  27  29
ENDBRANCH  25  27
ENDBRANCH   4  25
TORSDOF 12
ENDMDL
MODEL 5
REMARK VINA RESULT:      -4.9      6.928     11.076
REMARK  Name = Leptomycin.pdbqt.pdb
REMARK  12 active torsions:
REMARK  status: ('A' for Active; 'I' for Inactive)
REMARK    1  A    between atoms: C_2  and  C_4
REMARK    2  A    between atoms: C_5  and  C_6
REMARK    3  A    between atoms: C_6  and  C_7
REMARK    4  A    between atoms: C_10  and  C_11
REMARK    5  A    between atoms: C_10  and  C_21
REMARK    6  A    between atoms: C_12  and  C_13
REMARK    7  A    between atoms: C_23  and  C_25
REMARK    8  A    between atoms: C_25  and  C_27
REMARK    9  A    between atoms: C_27  and  C_29
REMARK   10  A    between atoms: C_29  and  O_30
REMARK   11  A    between atoms: C_29  and  C_32
REMARK   12  A    between atoms: C_38  and  O_40
REMARK                            x       y       z     vdW  Elec       q    Type
REMARK                         _______ _______ _______ _____ _____    ______ ____
ROOT
ATOM      1  C   UNL     1      -1.852 -39.182  -8.450  0.00  0.00    +0.000 C 
ATOM      2  C   UNL     1      -1.331 -37.999  -8.420  0.00  0.00    +0.000 C 
ATOM      3  C   UNL     1      -0.294 -37.641  -9.445  0.00  0.00    +0.000 C 
ATOM      4  C   UNL     1      -2.492 -40.447  -8.468  0.00  0.00    +0.000 C 
ATOM      5  C   UNL     1      -1.707 -41.578  -7.820  0.00  0.00    +0.000 C 
ENDROOT
BRANCH   2   6
ATOM      6  C   UNL     1      -2.050 -36.953  -7.791  0.00  0.00    +0.000 C 
ATOM      7  C   UNL     1      -2.714 -36.087  -7.288  0.00  0.00    +0.000 C 
BRANCH   7   8
ATOM      8  C   UNL     1      -3.658 -35.027  -6.713  0.00  0.00    +0.000 C 
BRANCH   8   9
ATOM      9  C   UNL     1      -4.595 -34.192  -6.056  0.00  0.00    +0.000 C 
ATOM     10  C   UNL     1      -5.157 -33.005  -6.775  0.00  0.00    +0.000 C 
ATOM     11  C   UNL     1      -4.928 -34.392  -4.694  0.00  0.00    +0.000 C 
ATOM     12  C   UNL     1      -5.097 -34.718  -3.449  0.00  0.00    +0.000 C 
BRANCH  12  13
ATOM     13  C   UNL     1      -4.263 -35.763  -2.968  0.00  0.00    +0.000 C 
ATOM     14  C   UNL     1      -3.464 -36.549  -2.539  0.00  0.00    +0.000 C 
BRANCH  14  15
ATOM     15  C   UNL     1      -2.437 -37.370  -2.005  0.00  0.00    +0.000 A 
ATOM     16  O   UNL     1      -2.413 -37.519  -0.553  0.00  0.00    +0.000 OA
ATOM     17  C   UNL     1      -1.479 -38.324   0.093  0.00  0.00    +0.000 A 
ATOM     18  O   UNL     1      -1.438 -38.511   1.300  0.00  0.00    +0.000 OA
ATOM     19  C   UNL     1      -0.572 -38.934  -0.834  0.00  0.00    +0.000 A 
ATOM     20  C   UNL     1      -0.546 -38.839  -2.024  0.00  0.00    +0.000 A 
ATOM     21  C   UNL     1      -1.434 -38.074  -2.812  0.00  0.00    +0.000 A 
ATOM     22  C   UNL     1      -1.334 -38.068  -4.304  0.00  0.00    +0.000 C 
ENDBRANCH  14  15
ENDBRANCH  12  13
BRANCH  12  23
ATOM     23  C   UNL     1      -6.055 -34.018  -2.674  0.00  0.00    +0.000 C 
ATOM     24  C   UNL     1      -7.092 -33.266  -1.830  0.00  0.00    +0.000 C 
ENDBRANCH  12  23
ENDBRANCH   8   9
ENDBRANCH   7   8
ENDBRANCH   2   6
BRANCH   4  25
ATOM     25  C   UNL     1      -3.983 -40.504  -8.574  0.00  0.00    +0.000 C 
ATOM     26  O   UNL     1      -4.562 -40.675  -9.652  0.00  0.00    +0.000 OA
BRANCH  25  27
ATOM     27  C   UNL     1      -4.762 -40.285  -7.318  0.00  0.00    +0.000 C 
ATOM     28  C   UNL     1      -5.465 -41.466  -6.652  0.00  0.00    +0.000 C 
BRANCH  27  29
ATOM     29  C   UNL     1      -5.078 -38.916  -6.923  0.00  0.00    +0.000 C 
BRANCH  29  30
ATOM     30  C   UNL     1      -5.836 -37.916  -7.652  0.00  0.00    +0.000 C 
ATOM     31  C   UNL     1      -7.020 -37.231  -7.003  0.00  0.00    +0.000 C 
ATOM     32  C   UNL     1      -5.441 -37.387  -8.902  0.00  0.00    +0.000 C 
ATOM     33  C   UNL     1      -5.107 -36.832 -10.156  0.00  0.00    +0.000 C 
ATOM     34  C   UNL     1      -4.583 -37.737 -11.228  0.00  0.00    +0.000 C 
ATOM     35  C   UNL     1      -5.142 -35.557 -10.333  0.00  0.00    +0.000 C 
ATOM     36  C   UNL     1      -5.171 -34.145 -10.501  0.00  0.00    +0.000 C 
ATOM     37  O   UNL     1      -4.492 -33.386  -9.836  0.00  0.00    +0.000 OA
BRANCH  36  38
ATOM     38  O   UNL     1      -6.029 -33.724 -11.443  0.00  0.00    +0.000 OA
ATOM     39  H   UNL     1      -6.838 -33.481 -10.947  0.00  0.00    +0.000 HD
ENDBRANCH  36  38
ENDBRANCH  29  30
BRANCH  29  40
ATOM     40  O   UNL     1      -4.621 -38.530  -5.660  0.00  0.00    +0.000 OA
ATOM     41  H   UNL     1      -3.805 -37.992  -5.715  0.00  0.00    +0.000 HD
ENDBRANCH  29  40
ENDBRANCH  27  29
ENDBRANCH  25  27
ENDBRANCH   4  25
TORSDOF 12
ENDMDL
MODEL 6
REMARK VINA RESULT:      -4.8     10.382     14.255
REMARK  Name = Leptomycin.pdbqt.pdb
REMARK  12 active torsions:
REMARK  status: ('A' for Active; 'I' for Inactive)
REMARK    1  A    between atoms: C_2  and  C_4
REMARK    2  A    between atoms: C_5  and  C_6
REMARK    3  A    between atoms: C_6  and  C_7
REMARK    4  A    between atoms: C_10  and  C_11
REMARK    5  A    between atoms: C_10  and  C_21
REMARK    6  A    between atoms: C_12  and  C_13
REMARK    7  A    between atoms: C_23  and  C_25
REMARK    8  A    between atoms: C_25  and  C_27
REMARK    9  A    between atoms: C_27  and  C_29
REMARK   10  A    between atoms: C_29  and  O_30
REMARK   11  A    between atoms: C_29  and  C_32
REMARK   12  A    between atoms: C_38  and  O_40
REMARK                            x       y       z     vdW  Elec       q    Type
REMARK                         _______ _______ _______ _____ _____    ______ ____
ROOT
ATOM      1  C   UNL     1      -0.598 -38.886  -1.097  0.00  0.00    +0.000 C 
ATOM      2  C   UNL     1      -1.030 -38.613   0.091  0.00  0.00    +0.000 C 
ATOM      3  C   UNL     1      -1.209 -37.174   0.480  0.00  0.00    +0.000 C 
ATOM      4  C   UNL     1      -0.175 -39.243  -2.402  0.00  0.00    +0.000 C 
ATOM      5  C   UNL     1       1.325 -39.171  -2.639  0.00  0.00    +0.000 C 
ENDROOT
BRANCH   2   6
ATOM      6  C   UNL     1      -1.764 -39.600   0.794  0.00  0.00    +0.000 C 
ATOM      7  C   UNL     1      -2.334 -40.447   1.428  0.00  0.00    +0.000 C 
BRANCH   7   8
ATOM      8  C   UNL     1      -2.955 -41.541   2.302  0.00  0.00    +0.000 C 
BRANCH   8   9
ATOM      9  C   UNL     1      -3.526 -42.666   2.944  0.00  0.00    +0.000 C 
ATOM     10  C   UNL     1      -3.063 -44.041   2.574  0.00  0.00    +0.000 C 
ATOM     11  C   UNL     1      -4.604 -42.525   3.851  0.00  0.00    +0.000 C 
ATOM     12  C   UNL     1      -5.588 -42.205   4.635  0.00  0.00    +0.000 C 
BRANCH  12  13
ATOM     13  C   UNL     1      -5.957 -40.833   4.629  0.00  0.00    +0.000 C 
ATOM     14  C   UNL     1      -6.196 -39.662   4.507  0.00  0.00    +0.000 C 
BRANCH  14  15
ATOM     15  C   UNL     1      -6.409 -38.284   4.244  0.00  0.00    +0.000 A 
ATOM     16  O   UNL     1      -7.727 -37.754   4.579  0.00  0.00    +0.000 OA
ATOM     17  C   UNL     1      -8.052 -36.412   4.401  0.00  0.00    +0.000 A 
ATOM     18  O   UNL     1      -9.126 -35.912   4.699  0.00  0.00    +0.000 OA
ATOM     19  C   UNL     1      -6.960 -35.671   3.843  0.00  0.00    +0.000 A 
ATOM     20  C   UNL     1      -5.871 -36.058   3.547  0.00  0.00    +0.000 A 
ATOM     21  C   UNL     1      -5.397 -37.382   3.683  0.00  0.00    +0.000 A 
ATOM     22  C   UNL     1      -3.991 -37.741   3.321  0.00  0.00    +0.000 C 
ENDBRANCH  14  15
ENDBRANCH  12  13
BRANCH  12  23
ATOM     23  C   UNL     1      -6.220 -43.215   5.402  0.00  0.00    +0.000 C 
ATOM     24  C   UNL     1      -6.897 -44.309   6.235  0.00  0.00    +0.000 C 
ENDBRANCH  12  23
ENDBRANCH   8   9
ENDBRANCH   7   8
ENDBRANCH   2   6
BRANCH   4  25
ATOM     25  C   UNL     1      -1.044 -40.141  -3.225  0.00  0.00    +0.000 C 
ATOM     26  O   UNL     1      -0.739 -41.313  -3.469  0.00  0.00    +0.000 OA
BRANCH  25  27
ATOM     27  C   UNL     1      -2.286 -39.543  -3.801  0.00  0.00    +0.000 C 
ATOM     28  C   UNL     1      -3.450 -40.452  -4.192  0.00  0.00    +0.000 C 
BRANCH  27  29
ATOM     29  C   UNL     1      -2.250 -38.154  -4.248  0.00  0.00    +0.000 C 
BRANCH  29  30
ATOM     30  C   UNL     1      -2.725 -36.968  -3.558  0.00  0.00    +0.000 C 
ATOM     31  C   UNL     1      -2.300 -35.592  -4.022  0.00  0.00    +0.000 C 
ATOM     32  C   UNL     1      -3.725 -36.989  -2.558  0.00  0.00    +0.000 C 
ATOM     33  C   UNL     1      -4.706 -36.947  -1.546  0.00  0.00    +0.000 C 
ATOM     34  C   UNL     1      -4.689 -37.999  -0.480  0.00  0.00    +0.000 C 
ATOM     35  C   UNL     1      -5.666 -36.089  -1.606  0.00  0.00    +0.000 C 
ATOM     36  C   UNL     1      -6.726 -35.146  -1.700  0.00  0.00    +0.000 C 
ATOM     37  O   UNL     1      -7.502 -35.115  -2.637  0.00  0.00    +0.000 OA
BRANCH  36  38
ATOM     38  O   UNL     1      -6.781 -34.280  -0.676  0.00  0.00    +0.000 OA
ATOM     39  H   UNL     1      -6.721 -34.842   0.124  0.00  0.00    +0.000 HD
ENDBRANCH  36  38
ENDBRANCH  29  30
BRANCH  29  40
ATOM     40  O   UNL     1      -1.642 -37.933  -5.486  0.00  0.00    +0.000 OA
ATOM     41  H   UNL     1      -1.371 -36.998  -5.599  0.00  0.00    +0.000 HD
ENDBRANCH  29  40
ENDBRANCH  27  29
ENDBRANCH  25  27
ENDBRANCH   4  25
TORSDOF 12
ENDMDL
MODEL 7
REMARK VINA RESULT:      -4.6     11.598     16.378
REMARK  Name = Leptomycin.pdbqt.pdb
REMARK  12 active torsions:
REMARK  status: ('A' for Active; 'I' for Inactive)
REMARK    1  A    between atoms: C_2  and  C_4
REMARK    2  A    between atoms: C_5  and  C_6
REMARK    3  A    between atoms: C_6  and  C_7
REMARK    4  A    between atoms: C_10  and  C_11
REMARK    5  A    between atoms: C_10  and  C_21
REMARK    6  A    between atoms: C_12  and  C_13
REMARK    7  A    between atoms: C_23  and  C_25
REMARK    8  A    between atoms: C_25  and  C_27
REMARK    9  A    between atoms: C_27  and  C_29
REMARK   10  A    between atoms: C_29  and  O_30
REMARK   11  A    between atoms: C_29  and  C_32
REMARK   12  A    between atoms: C_38  and  O_40
REMARK                            x       y       z     vdW  Elec       q    Type
REMARK                         _______ _______ _______ _____ _____    ______ ____
ROOT
ATOM      1  C   UNL     1      -9.627 -32.562  -0.183  0.00  0.00    +0.000 C 
ATOM      2  C   UNL     1     -10.360 -32.427   0.874  0.00  0.00    +0.000 C 
ATOM      3  C   UNL     1     -11.599 -33.263   1.004  0.00  0.00    +0.000 C 
ATOM      4  C   UNL     1      -8.762 -32.705  -1.297  0.00  0.00    +0.000 C 
ATOM      5  C   UNL     1      -9.191 -31.958  -2.550  0.00  0.00    +0.000 C 
ENDROOT
BRANCH   2   6
ATOM      6  C   UNL     1      -9.768 -31.906   2.051  0.00  0.00    +0.000 C 
ATOM      7  C   UNL     1      -9.316 -31.489   3.084  0.00  0.00    +0.000 C 
BRANCH   7   8
ATOM      8  C   UNL     1      -8.840 -31.008   4.458  0.00  0.00    +0.000 C 
BRANCH   8   9
ATOM      9  C   UNL     1      -8.239 -30.490   5.631  0.00  0.00    +0.000 C 
ATOM     10  C   UNL     1      -8.500 -29.070   6.028  0.00  0.00    +0.000 C 
ATOM     11  C   UNL     1      -7.309 -31.252   6.378  0.00  0.00    +0.000 C 
ATOM     12  C   UNL     1      -6.475 -32.087   6.920  0.00  0.00    +0.000 C 
BRANCH  12  13
ATOM     13  C   UNL     1      -6.257 -33.293   6.201  0.00  0.00    +0.000 C 
ATOM     14  C   UNL     1      -6.157 -34.373   5.685  0.00  0.00    +0.000 C 
BRANCH  14  15
ATOM     15  C   UNL     1      -6.132 -35.693   5.168  0.00  0.00    +0.000 A 
ATOM     16  O   UNL     1      -5.505 -35.868   3.862  0.00  0.00    +0.000 OA
ATOM     17  C   UNL     1      -5.385 -37.117   3.259  0.00  0.00    +0.000 A 
ATOM     18  O   UNL     1      -4.838 -37.322   2.186  0.00  0.00    +0.000 OA
ATOM     19  C   UNL     1      -5.964 -38.152   4.063  0.00  0.00    +0.000 A 
ATOM     20  C   UNL     1      -6.491 -38.060   5.130  0.00  0.00    +0.000 A 
ATOM     21  C   UNL     1      -6.672 -36.867   5.864  0.00  0.00    +0.000 A 
ATOM     22  C   UNL     1      -7.307 -36.880   7.218  0.00  0.00    +0.000 C 
ENDBRANCH  14  15
ENDBRANCH  12  13
BRANCH  12  23
ATOM     23  C   UNL     1      -5.842 -31.740   8.140  0.00  0.00    +0.000 C 
ATOM     24  C   UNL     1      -5.155 -31.371   9.460  0.00  0.00    +0.000 C 
ENDBRANCH  12  23
ENDBRANCH   8   9
ENDBRANCH   7   8
ENDBRANCH   2   6
BRANCH   4  25
ATOM     25  C   UNL     1      -7.326 -33.054  -1.060  0.00  0.00    +0.000 C 
ATOM     26  O   UNL     1      -6.548 -32.290  -0.480  0.00  0.00    +0.000 OA
BRANCH  25  27
ATOM     27  C   UNL     1      -6.844 -34.357  -1.612  0.00  0.00    +0.000 C 
ATOM     28  C   UNL     1      -6.940 -34.622  -3.112  0.00  0.00    +0.000 C 
BRANCH  27  29
ATOM     29  C   UNL     1      -6.571 -35.449  -0.683  0.00  0.00    +0.000 C 
BRANCH  29  30
ATOM     30  C   UNL     1      -6.059 -36.777  -0.972  0.00  0.00    +0.000 C 
ATOM     31  C   UNL     1      -7.012 -37.932  -1.196  0.00  0.00    +0.000 C 
ATOM     32  C   UNL     1      -4.698 -37.053  -1.241  0.00  0.00    +0.000 C 
ATOM     33  C   UNL     1      -3.355 -37.393  -1.502  0.00  0.00    +0.000 C 
ATOM     34  C   UNL     1      -2.277 -36.767  -0.671  0.00  0.00    +0.000 C 
ATOM     35  C   UNL     1      -3.056 -38.137  -2.511  0.00  0.00    +0.000 C 
ATOM     36  C   UNL     1      -2.748 -38.946  -3.639  0.00  0.00    +0.000 C 
ATOM     37  O   UNL     1      -3.026 -38.623  -4.779  0.00  0.00    +0.000 OA
BRANCH  36  38
ATOM     38  O   UNL     1      -2.143 -40.104  -3.334  0.00  0.00    +0.000 OA
ATOM     39  H   UNL     1      -1.226 -39.995  -3.661  0.00  0.00    +0.000 HD
ENDBRANCH  36  38
ENDBRANCH  29  30
BRANCH  29  40
ATOM     40  O   UNL     1      -6.795 -35.167   0.667  0.00  0.00    +0.000 OA
ATOM     41  H   UNL     1      -6.104 -35.555   1.242  0.00  0.00    +0.000 HD
ENDBRANCH  29  40
ENDBRANCH  27  29
ENDBRANCH  25  27
ENDBRANCH   4  25
TORSDOF 12
ENDMDL
MODEL 8
REMARK VINA RESULT:      -4.5     16.239     19.515
REMARK  Name = Leptomycin.pdbqt.pdb
REMARK  12 active torsions:
REMARK  status: ('A' for Active; 'I' for Inactive)
REMARK    1  A    between atoms: C_2  and  C_4
REMARK    2  A    between atoms: C_5  and  C_6
REMARK    3  A    between atoms: C_6  and  C_7
REMARK    4  A    between atoms: C_10  and  C_11
REMARK    5  A    between atoms: C_10  and  C_21
REMARK    6  A    between atoms: C_12  and  C_13
REMARK    7  A    between atoms: C_23  and  C_25
REMARK    8  A    between atoms: C_25  and  C_27
REMARK    9  A    between atoms: C_27  and  C_29
REMARK   10  A    between atoms: C_29  and  O_30
REMARK   11  A    between atoms: C_29  and  C_32
REMARK   12  A    between atoms: C_38  and  O_40
REMARK                            x       y       z     vdW  Elec       q    Type
REMARK                         _______ _______ _______ _____ _____    ______ ____
ROOT
ATOM      1  C   UNL     1       3.337 -14.904  -5.347  0.00  0.00    +0.000 C 
ATOM      2  C   UNL     1       3.487 -15.469  -4.193  0.00  0.00    +0.000 C 
ATOM      3  C   UNL     1       4.745 -15.203  -3.418  0.00  0.00    +0.000 C 
ATOM      4  C   UNL     1       3.098 -14.273  -6.594  0.00  0.00    +0.000 C 
ATOM      5  C   UNL     1       3.770 -14.929  -7.790  0.00  0.00    +0.000 C 
ENDROOT
BRANCH   2   6
ATOM      6  C   UNL     1       2.334 -15.894  -3.487  0.00  0.00    +0.000 C 
ATOM      7  C   UNL     1       1.329 -16.269  -2.945  0.00  0.00    +0.000 C 
BRANCH   7   8
ATOM      8  C   UNL     1       0.000 -16.767  -2.370  0.00  0.00    +0.000 C 
BRANCH   8   9
ATOM      9  C   UNL     1      -1.245 -17.045  -1.755  0.00  0.00    +0.000 C 
ATOM     10  C   UNL     1      -2.412 -16.142  -2.007  0.00  0.00    +0.000 C 
ATOM     11  C   UNL     1      -1.382 -18.099  -0.818  0.00  0.00    +0.000 C 
ATOM     12  C   UNL     1      -1.313 -19.088   0.020  0.00  0.00    +0.000 C 
BRANCH  12  13
ATOM     13  C   UNL     1      -0.015 -19.630   0.225  0.00  0.00    +0.000 C 
ATOM     14  C   UNL     1       1.032 -20.142   0.515  0.00  0.00    +0.000 C 
BRANCH  14  15
ATOM     15  C   UNL     1       2.203 -20.804   0.966  0.00  0.00    +0.000 A 
ATOM     16  O   UNL     1       2.236 -21.180   2.375  0.00  0.00    +0.000 OA
ATOM     17  C   UNL     1       3.312 -21.864   2.934  0.00  0.00    +0.000 A 
ATOM     18  O   UNL     1       3.374 -22.233   4.097  0.00  0.00    +0.000 OA
ATOM     19  C   UNL     1       4.344 -22.108   1.970  0.00  0.00    +0.000 A 
ATOM     20  C   UNL     1       4.368 -21.816   0.813  0.00  0.00    +0.000 A 
ATOM     21  C   UNL     1       3.347 -21.137   0.110  0.00  0.00    +0.000 A 
ATOM     22  C   UNL     1       3.468 -20.867  -1.356  0.00  0.00    +0.000 C 
ENDBRANCH  14  15
ENDBRANCH  12  13
BRANCH  12  23
ATOM     23  C   UNL     1      -2.493 -19.532   0.666  0.00  0.00    +0.000 C 
ATOM     24  C   UNL     1      -3.766 -20.019   1.368  0.00  0.00    +0.000 C 
ENDBRANCH  12  23
ENDBRANCH   8   9
ENDBRANCH   7   8
ENDBRANCH   2   6
BRANCH   4  25
ATOM     25  C   UNL     1       1.867 -13.439  -6.761  0.00  0.00    +0.000 C 
ATOM     26  O   UNL     1       1.150 -13.514  -7.764  0.00  0.00    +0.000 OA
BRANCH  25  27
ATOM     27  C   UNL     1       1.563 -12.453  -5.680  0.00  0.00    +0.000 C 
ATOM     28  C   UNL     1       2.471 -11.240  -5.490  0.00  0.00    +0.000 C 
BRANCH  27  29
ATOM     29  C   UNL     1       0.593 -12.820  -4.654  0.00  0.00    +0.000 C 
BRANCH  29  30
ATOM     30  C   UNL     1       0.710 -12.696  -3.212  0.00  0.00    +0.000 C 
ATOM     31  C   UNL     1      -0.495 -12.925  -2.324  0.00  0.00    +0.000 C 
ATOM     32  C   UNL     1       1.941 -12.540  -2.534  0.00  0.00    +0.000 C 
ATOM     33  C   UNL     1       3.135 -12.369  -1.802  0.00  0.00    +0.000 C 
ATOM     34  C   UNL     1       4.175 -11.428  -2.329  0.00  0.00    +0.000 C 
ATOM     35  C   UNL     1       3.373 -13.097  -0.766  0.00  0.00    +0.000 C 
ATOM     36  C   UNL     1       3.623 -13.922   0.365  0.00  0.00    +0.000 C 
ATOM     37  O   UNL     1       3.682 -15.135   0.297  0.00  0.00    +0.000 OA
BRANCH  36  38
ATOM     38  O   UNL     1       3.766 -13.246   1.515  0.00  0.00    +0.000 OA
ATOM     39  H   UNL     1       3.079 -12.549   1.478  0.00  0.00    +0.000 HD
ENDBRANCH  36  38
ENDBRANCH  29  30
BRANCH  29  40
ATOM     40  O   UNL     1      -0.624 -13.321  -5.122  0.00  0.00    +0.000 OA
ATOM     41  H   UNL     1      -1.166 -13.700  -4.400  0.00  0.00    +0.000 HD
ENDBRANCH  29  40
ENDBRANCH  27  29
ENDBRANCH  25  27
ENDBRANCH   4  25
TORSDOF 12
ENDMDL
MODEL 9
REMARK VINA RESULT:      -4.4     30.484     33.308
REMARK  Name = Leptomycin.pdbqt.pdb
REMARK  12 active torsions:
REMARK  status: ('A' for Active; 'I' for Inactive)
REMARK    1  A    between atoms: C_2  and  C_4
REMARK    2  A    between atoms: C_5  and  C_6
REMARK    3  A    between atoms: C_6  and  C_7
REMARK    4  A    between atoms: C_10  and  C_11
REMARK    5  A    between atoms: C_10  and  C_21
REMARK    6  A    between atoms: C_12  and  C_13
REMARK    7  A    between atoms: C_23  and  C_25
REMARK    8  A    between atoms: C_25  and  C_27
REMARK    9  A    between atoms: C_27  and  C_29
REMARK   10  A    between atoms: C_29  and  O_30
REMARK   11  A    between atoms: C_29  and  C_32
REMARK   12  A    between atoms: C_38  and  O_40
REMARK                            x       y       z     vdW  Elec       q    Type
REMARK                         _______ _______ _______ _____ _____    ______ ____
ROOT
ATOM      1  C   UNL     1      -7.590  -2.669  -9.770  0.00  0.00    +0.000 C 
ATOM      2  C   UNL     1      -8.040  -1.604  -9.190  0.00  0.00    +0.000 C 
ATOM      3  C   UNL     1      -8.905  -0.665  -9.979  0.00  0.00    +0.000 C 
ATOM      4  C   UNL     1      -7.111  -3.876 -10.340  0.00  0.00    +0.000 C 
ATOM      5  C   UNL     1      -5.870  -3.733 -11.207  0.00  0.00    +0.000 C 
ENDROOT
BRANCH   2   6
ATOM      6  C   UNL     1      -8.133  -1.585  -7.776  0.00  0.00    +0.000 C 
ATOM      7  C   UNL     1      -8.203  -1.634  -6.578  0.00  0.00    +0.000 C 
BRANCH   7   8
ATOM      8  C   UNL     1      -8.277  -1.820  -5.059  0.00  0.00    +0.000 C 
BRANCH   8   9
ATOM      9  C   UNL     1      -8.148  -2.035  -3.665  0.00  0.00    +0.000 C 
ATOM     10  C   UNL     1      -6.835  -2.486  -3.105  0.00  0.00    +0.000 C 
ATOM     11  C   UNL     1      -9.267  -1.940  -2.802  0.00  0.00    +0.000 C 
ATOM     12  C   UNL     1     -10.398  -1.824  -2.175  0.00  0.00    +0.000 C 
BRANCH  12  13
ATOM     13  C   UNL     1     -11.536  -1.601  -2.996  0.00  0.00    +0.000 C 
ATOM     14  C   UNL     1     -12.432  -1.483  -3.787  0.00  0.00    +0.000 C 
BRANCH  14  15
ATOM     15  C   UNL     1     -13.416  -1.425  -4.807  0.00  0.00    +0.000 A 
ATOM     16  O   UNL     1     -14.726  -1.980  -4.479  0.00  0.00    +0.000 OA
ATOM     17  C   UNL     1     -15.787  -1.955  -5.379  0.00  0.00    +0.000 A 
ATOM     18  O   UNL     1     -16.911  -2.372  -5.142  0.00  0.00    +0.000 OA
ATOM     19  C   UNL     1     -15.413  -1.353  -6.625  0.00  0.00    +0.000 A 
ATOM     20  C   UNL     1     -14.358  -0.892  -6.943  0.00  0.00    +0.000 A 
ATOM     21  C   UNL     1     -13.201  -0.837  -6.134  0.00  0.00    +0.000 A 
ATOM     22  C   UNL     1     -11.945  -0.191  -6.625  0.00  0.00    +0.000 C 
ENDBRANCH  14  15
ENDBRANCH  12  13
BRANCH  12  23
ATOM     23  C   UNL     1     -10.423  -1.945  -0.763  0.00  0.00    +0.000 C 
ATOM     24  C   UNL     1     -10.450  -2.068   0.765  0.00  0.00    +0.000 C 
ENDBRANCH  12  23
ENDBRANCH   8   9
ENDBRANCH   7   8
ENDBRANCH   2   6
BRANCH   4  25
ATOM     25  C   UNL     1      -7.443  -5.174  -9.675  0.00  0.00    +0.000 C 
ATOM     26  O   UNL     1      -7.098  -6.264 -10.144  0.00  0.00    +0.000 OA
BRANCH  25  27
ATOM     27  C   UNL     1      -8.271  -5.109  -8.433  0.00  0.00    +0.000 C 
ATOM     28  C   UNL     1      -7.618  -5.366  -7.077  0.00  0.00    +0.000 C 
BRANCH  27  29
ATOM     29  C   UNL     1      -9.725  -5.095  -8.564  0.00  0.00    +0.000 C 
BRANCH  29  30
ATOM     30  C   UNL     1     -10.702  -4.420  -7.729  0.00  0.00    +0.000 C 
ATOM     31  C   UNL     1     -11.661  -3.417  -8.333  0.00  0.00    +0.000 C 
ATOM     32  C   UNL     1     -10.953  -4.763  -6.380  0.00  0.00    +0.000 C 
ATOM     33  C   UNL     1     -11.238  -5.048  -5.028  0.00  0.00    +0.000 C 
ATOM     34  C   UNL     1     -10.101  -5.328  -4.095  0.00  0.00    +0.000 C 
ATOM     35  C   UNL     1     -12.458  -5.180  -4.635  0.00  0.00    +0.000 C 
ATOM     36  C   UNL     1     -13.810  -5.338  -4.225  0.00  0.00    +0.000 C 
ATOM     37  O   UNL     1     -14.549  -6.182  -4.696  0.00  0.00    +0.000 OA
BRANCH  36  38
ATOM     38  O   UNL     1     -14.205  -4.461  -3.289  0.00  0.00    +0.000 OA
ATOM     39  H   UNL     1     -14.735  -4.995  -2.661  0.00  0.00    +0.000 HD
ENDBRANCH  36  38
ENDBRANCH  29  30
BRANCH  29  40
ATOM     40  O   UNL     1     -10.241  -5.791  -9.660  0.00  0.00    +0.000 OA
ATOM     41  H   UNL     1     -10.646  -5.190 -10.318  0.00  0.00    +0.000 HD
ENDBRANCH  29  40
ENDBRANCH  27  29
ENDBRANCH  25  27
ENDBRANCH   4  25
TORSDOF 12
ENDMDL
