MODEL 1
REMARK VINA RESULT:      -6.8      0.000      0.000
REMARK  Name = Lobelin.pdbqt.pdb
REMARK  3 active torsions:
REMARK  status: ('A' for Active; 'I' for Inactive)
REMARK    1  A    between atoms: C_9  and  O_10
REMARK    2  A    between atoms: C_9  and  C_12
REMARK    3  A    between atoms: C_19  and  C_21
REMARK                            x       y       z     vdW  Elec       q    Type
REMARK                         _______ _______ _______ _____ _____    ______ ____
ROOT
ATOM      1  N   UNL     1      -6.578 -34.967  -5.356  0.00  0.00    +0.000 N 
ATOM      2  C   UNL     1      -6.947 -35.723  -4.164  0.00  0.00    +0.000 C 
ATOM      3  C   UNL     1      -6.582 -35.614  -6.664  0.00  0.00    +0.000 C 
ATOM      4  C   UNL     1      -7.333 -37.076  -4.409  0.00  0.00    +0.000 C 
ATOM      5  C   UNL     1      -7.003 -36.979  -6.655  0.00  0.00    +0.000 C 
ATOM      6  C   UNL     1      -7.453 -37.988  -5.616  0.00  0.00    +0.000 C 
ATOM      7  C   UNL     1      -6.087 -33.612  -5.229  0.00  0.00    +0.000 C 
ATOM      8  C   UNL     1      -6.936 -35.153  -2.862  0.00  0.00    +0.000 C 
ATOM      9  C   UNL     1      -6.947 -34.570  -1.568  0.00  0.00    +0.000 C 
ATOM     10  C   UNL     1      -6.206 -34.932  -7.849  0.00  0.00    +0.000 C 
ATOM     11  C   UNL     1      -5.857 -34.230  -9.056  0.00  0.00    +0.000 C 
ATOM     12  O   UNL     1      -6.630 -34.251 -10.003  0.00  0.00    +0.000 OA
ENDROOT
BRANCH   9  13
ATOM     13  C   UNL     1      -7.811 -33.457  -1.174  0.00  0.00    +0.000 A 
ATOM     14  C   UNL     1      -8.520 -32.727  -2.132  0.00  0.00    +0.000 A 
ATOM     15  C   UNL     1      -9.343 -31.667  -1.757  0.00  0.00    +0.000 A 
ATOM     16  C   UNL     1      -9.467 -31.325  -0.414  0.00  0.00    +0.000 A 
ATOM     17  C   UNL     1      -8.767 -32.041   0.552  0.00  0.00    +0.000 A 
ATOM     18  C   UNL     1      -7.945 -33.099   0.171  0.00  0.00    +0.000 A 
ENDBRANCH   9  13
BRANCH  11  19
ATOM     19  C   UNL     1      -4.568 -33.519  -9.109  0.00  0.00    +0.000 A 
ATOM     20  C   UNL     1      -3.527 -33.967  -9.921  0.00  0.00    +0.000 A 
ATOM     21  C   UNL     1      -2.322 -33.270  -9.954  0.00  0.00    +0.000 A 
ATOM     22  C   UNL     1      -2.159 -32.125  -9.178  0.00  0.00    +0.000 A 
ATOM     23  C   UNL     1      -3.201 -31.674  -8.369  0.00  0.00    +0.000 A 
ATOM     24  C   UNL     1      -4.407 -32.370  -8.334  0.00  0.00    +0.000 A 
ENDBRANCH  11  19
BRANCH   9  25
ATOM     25  O   UNL     1      -6.102 -35.073  -0.604  0.00  0.00    +0.000 OA
ATOM     26  H   UNL     1      -5.380 -34.456  -0.397  0.00  0.00    +0.000 HD
ENDBRANCH   9  25
TORSDOF 3
ENDMDL
MODEL 2
REMARK VINA RESULT:      -6.3      3.595      8.398
REMARK  Name = Lobelin.pdbqt.pdb
REMARK  3 active torsions:
REMARK  status: ('A' for Active; 'I' for Inactive)
REMARK    1  A    between atoms: C_9  and  O_10
REMARK    2  A    between atoms: C_9  and  C_12
REMARK    3  A    between atoms: C_19  and  C_21
REMARK                            x       y       z     vdW  Elec       q    Type
REMARK                         _______ _______ _______ _____ _____    ______ ____
ROOT
ATOM      1  N   UNL     1      -4.512 -35.536  -4.898  0.00  0.00    +0.000 N 
ATOM      2  C   UNL     1      -5.153 -34.553  -5.765  0.00  0.00    +0.000 C 
ATOM      3  C   UNL     1      -5.325 -36.454  -4.105  0.00  0.00    +0.000 C 
ATOM      4  C   UNL     1      -6.580 -34.613  -5.785  0.00  0.00    +0.000 C 
ATOM      5  C   UNL     1      -6.734 -36.320  -4.293  0.00  0.00    +0.000 C 
ATOM      6  C   UNL     1      -7.660 -35.441  -5.113  0.00  0.00    +0.000 C 
ATOM      7  C   UNL     1      -3.076 -35.521  -4.725  0.00  0.00    +0.000 C 
ATOM      8  C   UNL     1      -4.414 -33.617  -6.538  0.00  0.00    +0.000 C 
ATOM      9  C   UNL     1      -3.669 -32.703  -7.327  0.00  0.00    +0.000 C 
ATOM     10  C   UNL     1      -4.753 -37.410  -3.228  0.00  0.00    +0.000 C 
ATOM     11  C   UNL     1      -4.170 -38.402  -2.363  0.00  0.00    +0.000 C 
ATOM     12  O   UNL     1      -4.511 -39.570  -2.482  0.00  0.00    +0.000 OA
ENDROOT
BRANCH   9  13
ATOM     13  C   UNL     1      -2.747 -33.096  -8.393  0.00  0.00    +0.000 A 
ATOM     14  C   UNL     1      -2.393 -34.436  -8.576  0.00  0.00    +0.000 A 
ATOM     15  C   UNL     1      -1.516 -34.811  -9.592  0.00  0.00    +0.000 A 
ATOM     16  C   UNL     1      -0.981 -33.846 -10.439  0.00  0.00    +0.000 A 
ATOM     17  C   UNL     1      -1.322 -32.508 -10.270  0.00  0.00    +0.000 A 
ATOM     18  C   UNL     1      -2.200 -32.138  -9.252  0.00  0.00    +0.000 A 
ENDBRANCH   9  13
BRANCH  11  19
ATOM     19  C   UNL     1      -3.189 -37.967  -1.354  0.00  0.00    +0.000 A 
ATOM     20  C   UNL     1      -3.581 -37.235  -0.233  0.00  0.00    +0.000 A 
ATOM     21  C   UNL     1      -2.631 -36.844   0.707  0.00  0.00    +0.000 A 
ATOM     22  C   UNL     1      -1.292 -37.186   0.528  0.00  0.00    +0.000 A 
ATOM     23  C   UNL     1      -0.902 -37.920  -0.590  0.00  0.00    +0.000 A 
ATOM     24  C   UNL     1      -1.850 -38.313  -1.532  0.00  0.00    +0.000 A 
ENDBRANCH  11  19
BRANCH   9  25
ATOM     25  O   UNL     1      -3.812 -31.354  -7.095  0.00  0.00    +0.000 OA
ATOM     26  H   UNL     1      -3.107 -30.836  -7.519  0.00  0.00    +0.000 HD
ENDBRANCH   9  25
TORSDOF 3
ENDMDL
MODEL 3
REMARK VINA RESULT:      -6.3     11.009     12.808
REMARK  Name = Lobelin.pdbqt.pdb
REMARK  3 active torsions:
REMARK  status: ('A' for Active; 'I' for Inactive)
REMARK    1  A    between atoms: C_9  and  O_10
REMARK    2  A    between atoms: C_9  and  C_12
REMARK    3  A    between atoms: C_19  and  C_21
REMARK                            x       y       z     vdW  Elec       q    Type
REMARK                         _______ _______ _______ _____ _____    ______ ____
ROOT
ATOM      1  N   UNL     1       5.187 -28.966  -3.124  0.00  0.00    +0.000 N 
ATOM      2  C   UNL     1       4.910 -28.399  -1.808  0.00  0.00    +0.000 C 
ATOM      3  C   UNL     1       6.074 -28.269  -4.050  0.00  0.00    +0.000 C 
ATOM      4  C   UNL     1       5.597 -27.179  -1.526  0.00  0.00    +0.000 C 
ATOM      5  C   UNL     1       6.642 -27.061  -3.541  0.00  0.00    +0.000 C 
ATOM      6  C   UNL     1       6.563 -26.262  -2.254  0.00  0.00    +0.000 C 
ATOM      7  C   UNL     1       4.486 -30.154  -3.561  0.00  0.00    +0.000 C 
ATOM      8  C   UNL     1       4.035 -29.019  -0.876  0.00  0.00    +0.000 C 
ATOM      9  C   UNL     1       3.179 -29.657   0.059  0.00  0.00    +0.000 C 
ATOM     10  C   UNL     1       6.355 -28.764  -5.349  0.00  0.00    +0.000 C 
ATOM     11  C   UNL     1       6.666 -29.284  -6.654  0.00  0.00    +0.000 C 
ATOM     12  O   UNL     1       7.837 -29.409  -6.983  0.00  0.00    +0.000 OA
ENDROOT
BRANCH   9  13
ATOM     13  C   UNL     1       3.433 -30.975   0.642  0.00  0.00    +0.000 A 
ATOM     14  C   UNL     1       3.554 -31.135   2.025  0.00  0.00    +0.000 A 
ATOM     15  C   UNL     1       3.796 -32.391   2.580  0.00  0.00    +0.000 A 
ATOM     16  C   UNL     1       3.917 -33.504   1.754  0.00  0.00    +0.000 A 
ATOM     17  C   UNL     1       3.800 -33.361   0.375  0.00  0.00    +0.000 A 
ATOM     18  C   UNL     1       3.560 -32.103  -0.175  0.00  0.00    +0.000 A 
ENDBRANCH   9  13
BRANCH  11  19
ATOM     19  C   UNL     1       5.555 -29.635  -7.555  0.00  0.00    +0.000 A 
ATOM     20  C   UNL     1       4.527 -30.482  -7.140  0.00  0.00    +0.000 A 
ATOM     21  C   UNL     1       3.487 -30.790  -8.012  0.00  0.00    +0.000 A 
ATOM     22  C   UNL     1       3.472 -30.252  -9.296  0.00  0.00    +0.000 A 
ATOM     23  C   UNL     1       4.497 -29.403  -9.710  0.00  0.00    +0.000 A 
ATOM     24  C   UNL     1       5.539 -29.093  -8.840  0.00  0.00    +0.000 A 
ENDBRANCH  11  19
BRANCH   9  25
ATOM     25  O   UNL     1       2.034 -29.008   0.464  0.00  0.00    +0.000 OA
ATOM     26  H   UNL     1       2.222 -28.115   0.799  0.00  0.00    +0.000 HD
ENDBRANCH   9  25
TORSDOF 3
ENDMDL
MODEL 4
REMARK VINA RESULT:      -6.2      3.289      8.191
REMARK  Name = Lobelin.pdbqt.pdb
REMARK  3 active torsions:
REMARK  status: ('A' for Active; 'I' for Inactive)
REMARK    1  A    between atoms: C_9  and  O_10
REMARK    2  A    between atoms: C_9  and  C_12
REMARK    3  A    between atoms: C_19  and  C_21
REMARK                            x       y       z     vdW  Elec       q    Type
REMARK                         _______ _______ _______ _____ _____    ______ ____
ROOT
ATOM      1  N   UNL     1      -5.102 -34.661  -4.459  0.00  0.00    +0.000 N 
ATOM      2  C   UNL     1      -5.548 -33.468  -5.170  0.00  0.00    +0.000 C 
ATOM      3  C   UNL     1      -5.839 -35.136  -3.292  0.00  0.00    +0.000 C 
ATOM      4  C   UNL     1      -6.742 -32.875  -4.655  0.00  0.00    +0.000 C 
ATOM      5  C   UNL     1      -7.002 -34.373  -2.966  0.00  0.00    +0.000 C 
ATOM      6  C   UNL     1      -7.705 -33.145  -3.513  0.00  0.00    +0.000 C 
ATOM      7  C   UNL     1      -3.860 -35.302  -4.831  0.00  0.00    +0.000 C 
ATOM      8  C   UNL     1      -4.856 -32.943  -6.295  0.00  0.00    +0.000 C 
ATOM      9  C   UNL     1      -4.174 -32.440  -7.433  0.00  0.00    +0.000 C 
ATOM     10  C   UNL     1      -5.433 -36.275  -2.550  0.00  0.00    +0.000 C 
ATOM     11  C   UNL     1      -5.039 -37.449  -1.818  0.00  0.00    +0.000 C 
ATOM     12  O   UNL     1      -5.861 -38.333  -1.621  0.00  0.00    +0.000 OA
ENDROOT
BRANCH   9  13
ATOM     13  C   UNL     1      -4.017 -33.174  -8.690  0.00  0.00    +0.000 A 
ATOM     14  C   UNL     1      -2.748 -33.402  -9.231  0.00  0.00    +0.000 A 
ATOM     15  C   UNL     1      -2.597 -34.102 -10.427  0.00  0.00    +0.000 A 
ATOM     16  C   UNL     1      -3.718 -34.582 -11.097  0.00  0.00    +0.000 A 
ATOM     17  C   UNL     1      -4.988 -34.362 -10.572  0.00  0.00    +0.000 A 
ATOM     18  C   UNL     1      -5.133 -33.661  -9.376  0.00  0.00    +0.000 A 
ENDBRANCH   9  13
BRANCH  11  19
ATOM     19  C   UNL     1      -3.656 -37.537  -1.320  0.00  0.00    +0.000 A 
ATOM     20  C   UNL     1      -3.323 -37.121  -0.031  0.00  0.00    +0.000 A 
ATOM     21  C   UNL     1      -2.007 -37.223   0.413  0.00  0.00    +0.000 A 
ATOM     22  C   UNL     1      -1.026 -37.741  -0.429  0.00  0.00    +0.000 A 
ATOM     23  C   UNL     1      -1.359 -38.160  -1.716  0.00  0.00    +0.000 A 
ATOM     24  C   UNL     1      -2.674 -38.060  -2.162  0.00  0.00    +0.000 A 
ENDBRANCH  11  19
BRANCH   9  25
ATOM     25  O   UNL     1      -3.623 -31.180  -7.376  0.00  0.00    +0.000 OA
ATOM     26  H   UNL     1      -2.910 -31.125  -6.718  0.00  0.00    +0.000 HD
ENDBRANCH   9  25
TORSDOF 3
ENDMDL
MODEL 5
REMARK VINA RESULT:      -6.2      4.289      7.156
REMARK  Name = Lobelin.pdbqt.pdb
REMARK  3 active torsions:
REMARK  status: ('A' for Active; 'I' for Inactive)
REMARK    1  A    between atoms: C_9  and  O_10
REMARK    2  A    between atoms: C_9  and  C_12
REMARK    3  A    between atoms: C_19  and  C_21
REMARK                            x       y       z     vdW  Elec       q    Type
REMARK                         _______ _______ _______ _____ _____    ______ ____
ROOT
ATOM      1  N   UNL     1      -4.342 -35.563  -2.786  0.00  0.00    +0.000 N 
ATOM      2  C   UNL     1      -4.894 -34.553  -3.682  0.00  0.00    +0.000 C 
ATOM      3  C   UNL     1      -3.004 -36.098  -3.021  0.00  0.00    +0.000 C 
ATOM      4  C   UNL     1      -4.015 -34.136  -4.728  0.00  0.00    +0.000 C 
ATOM      5  C   UNL     1      -2.318 -35.526  -4.135  0.00  0.00    +0.000 C 
ATOM      6  C   UNL     1      -2.613 -34.482  -5.195  0.00  0.00    +0.000 C 
ATOM      7  C   UNL     1      -5.165 -36.129  -1.739  0.00  0.00    +0.000 C 
ATOM      8  C   UNL     1      -6.200 -34.016  -3.519  0.00  0.00    +0.000 C 
ATOM      9  C   UNL     1      -7.495 -33.466  -3.334  0.00  0.00    +0.000 C 
ATOM     10  C   UNL     1      -2.431 -37.099  -2.196  0.00  0.00    +0.000 C 
ATOM     11  C   UNL     1      -1.838 -38.091  -1.338  0.00  0.00    +0.000 C 
ATOM     12  O   UNL     1      -0.733 -37.882  -0.860  0.00  0.00    +0.000 OA
ENDROOT
BRANCH   9  13
ATOM     13  C   UNL     1      -7.904 -32.698  -2.158  0.00  0.00    +0.000 A 
ATOM     14  C   UNL     1      -6.984 -32.383  -1.154  0.00  0.00    +0.000 A 
ATOM     15  C   UNL     1      -7.372 -31.651  -0.033  0.00  0.00    +0.000 A 
ATOM     16  C   UNL     1      -8.690 -31.224   0.096  0.00  0.00    +0.000 A 
ATOM     17  C   UNL     1      -9.618 -31.531  -0.894  0.00  0.00    +0.000 A 
ATOM     18  C   UNL     1      -9.224 -32.264  -2.013  0.00  0.00    +0.000 A 
ENDBRANCH   9  13
BRANCH  11  19
ATOM     19  C   UNL     1      -2.585 -39.334  -1.078  0.00  0.00    +0.000 A 
ATOM     20  C   UNL     1      -2.709 -39.846   0.213  0.00  0.00    +0.000 A 
ATOM     21  C   UNL     1      -3.427 -41.020   0.429  0.00  0.00    +0.000 A 
ATOM     22  C   UNL     1      -4.023 -41.678  -0.645  0.00  0.00    +0.000 A 
ATOM     23  C   UNL     1      -3.902 -41.164  -1.934  0.00  0.00    +0.000 A 
ATOM     24  C   UNL     1      -3.184 -39.991  -2.152  0.00  0.00    +0.000 A 
ENDBRANCH  11  19
BRANCH   9  25
ATOM     25  O   UNL     1      -8.442 -33.650  -4.316  0.00  0.00    +0.000 OA
ATOM     26  H   UNL     1      -9.073 -34.353  -4.085  0.00  0.00    +0.000 HD
ENDBRANCH   9  25
TORSDOF 3
ENDMDL
MODEL 6
REMARK VINA RESULT:      -6.1      4.633      5.307
REMARK  Name = Lobelin.pdbqt.pdb
REMARK  3 active torsions:
REMARK  status: ('A' for Active; 'I' for Inactive)
REMARK    1  A    between atoms: C_9  and  O_10
REMARK    2  A    between atoms: C_9  and  C_12
REMARK    3  A    between atoms: C_19  and  C_21
REMARK                            x       y       z     vdW  Elec       q    Type
REMARK                         _______ _______ _______ _____ _____    ______ ____
ROOT
ATOM      1  N   UNL     1      -2.417 -37.037  -3.757  0.00  0.00    +0.000 N 
ATOM      2  C   UNL     1      -1.667 -37.696  -2.693  0.00  0.00    +0.000 C 
ATOM      3  C   UNL     1      -2.273 -37.485  -5.139  0.00  0.00    +0.000 C 
ATOM      4  C   UNL     1      -0.858 -38.792  -3.121  0.00  0.00    +0.000 C 
ATOM      5  C   UNL     1      -1.401 -38.602  -5.319  0.00  0.00    +0.000 C 
ATOM      6  C   UNL     1      -0.535 -39.479  -4.435  0.00  0.00    +0.000 C 
ATOM      7  C   UNL     1      -3.205 -35.860  -3.465  0.00  0.00    +0.000 C 
ATOM      8  C   UNL     1      -1.746 -37.287  -1.334  0.00  0.00    +0.000 C 
ATOM      9  C   UNL     1      -1.850 -36.888   0.024  0.00  0.00    +0.000 C 
ATOM     10  C   UNL     1      -2.959 -36.862  -6.214  0.00  0.00    +0.000 C 
ATOM     11  C   UNL     1      -3.680 -36.252  -7.299  0.00  0.00    +0.000 C 
ATOM     12  O   UNL     1      -4.341 -36.957  -8.047  0.00  0.00    +0.000 OA
ENDROOT
BRANCH   9  13
ATOM     13  C   UNL     1      -3.084 -36.947   0.807  0.00  0.00    +0.000 A 
ATOM     14  C   UNL     1      -3.050 -36.881   2.203  0.00  0.00    +0.000 A 
ATOM     15  C   UNL     1      -4.225 -36.937   2.950  0.00  0.00    +0.000 A 
ATOM     16  C   UNL     1      -5.453 -37.059   2.306  0.00  0.00    +0.000 A 
ATOM     17  C   UNL     1      -5.504 -37.127   0.917  0.00  0.00    +0.000 A 
ATOM     18  C   UNL     1      -4.325 -37.071   0.175  0.00  0.00    +0.000 A 
ENDBRANCH   9  13
BRANCH  11  19
ATOM     19  C   UNL     1      -3.583 -34.792  -7.475  0.00  0.00    +0.000 A 
ATOM     20  C   UNL     1      -2.772 -34.235  -8.462  0.00  0.00    +0.000 A 
ATOM     21  C   UNL     1      -2.707 -32.851  -8.608  0.00  0.00    +0.000 A 
ATOM     22  C   UNL     1      -3.453 -32.027  -7.769  0.00  0.00    +0.000 A 
ATOM     23  C   UNL     1      -4.267 -32.584  -6.785  0.00  0.00    +0.000 A 
ATOM     24  C   UNL     1      -4.334 -33.967  -6.637  0.00  0.00    +0.000 A 
ENDBRANCH  11  19
BRANCH   9  25
ATOM     25  O   UNL     1      -0.727 -36.418   0.667  0.00  0.00    +0.000 OA
ATOM     26  H   UNL     1      -0.937 -36.056   1.545  0.00  0.00    +0.000 HD
ENDBRANCH   9  25
TORSDOF 3
ENDMDL
MODEL 7
REMARK VINA RESULT:      -6.0     18.113     20.369
REMARK  Name = Lobelin.pdbqt.pdb
REMARK  3 active torsions:
REMARK  status: ('A' for Active; 'I' for Inactive)
REMARK    1  A    between atoms: C_9  and  O_10
REMARK    2  A    between atoms: C_9  and  C_12
REMARK    3  A    between atoms: C_19  and  C_21
REMARK                            x       y       z     vdW  Elec       q    Type
REMARK                         _______ _______ _______ _____ _____    ______ ____
ROOT
ATOM      1  N   UNL     1      -3.951 -18.502 -15.960  0.00  0.00    +0.000 N 
ATOM      2  C   UNL     1      -2.906 -19.409 -16.420  0.00  0.00    +0.000 C 
ATOM      3  C   UNL     1      -5.336 -18.708 -16.374  0.00  0.00    +0.000 C 
ATOM      4  C   UNL     1      -3.366 -20.486 -17.239  0.00  0.00    +0.000 C 
ATOM      5  C   UNL     1      -5.549 -19.855 -17.198  0.00  0.00    +0.000 C 
ATOM      6  C   UNL     1      -4.696 -20.956 -17.799  0.00  0.00    +0.000 C 
ATOM      7  C   UNL     1      -3.602 -17.324 -15.196  0.00  0.00    +0.000 C 
ATOM      8  C   UNL     1      -1.539 -19.242 -16.072  0.00  0.00    +0.000 C 
ATOM      9  C   UNL     1      -0.179 -19.083 -15.699  0.00  0.00    +0.000 C 
ATOM     10  C   UNL     1      -6.385 -17.841 -15.976  0.00  0.00    +0.000 C 
ATOM     11  C   UNL     1      -7.454 -16.980 -15.544  0.00  0.00    +0.000 C 
ATOM     12  O   UNL     1      -8.443 -17.473 -15.021  0.00  0.00    +0.000 OA
ENDROOT
BRANCH   9  13
ATOM     13  C   UNL     1       0.312 -19.159 -14.323  0.00  0.00    +0.000 A 
ATOM     14  C   UNL     1       0.192 -18.067 -13.458  0.00  0.00    +0.000 A 
ATOM     15  C   UNL     1       0.659 -18.139 -12.147  0.00  0.00    +0.000 A 
ATOM     16  C   UNL     1       1.252 -19.309 -11.684  0.00  0.00    +0.000 A 
ATOM     17  C   UNL     1       1.380 -20.405 -12.532  0.00  0.00    +0.000 A 
ATOM     18  C   UNL     1       0.912 -20.327 -13.843  0.00  0.00    +0.000 A 
ENDBRANCH   9  13
BRANCH  11  19
ATOM     19  C   UNL     1      -7.319 -15.529 -15.761  0.00  0.00    +0.000 A 
ATOM     20  C   UNL     1      -8.265 -14.632 -15.263  0.00  0.00    +0.000 A 
ATOM     21  C   UNL     1      -8.107 -13.266 -15.479  0.00  0.00    +0.000 A 
ATOM     22  C   UNL     1      -7.004 -12.796 -16.189  0.00  0.00    +0.000 A 
ATOM     23  C   UNL     1      -6.057 -13.692 -16.682  0.00  0.00    +0.000 A 
ATOM     24  C   UNL     1      -6.213 -15.059 -16.468  0.00  0.00    +0.000 A 
ENDBRANCH  11  19
BRANCH   9  25
ATOM     25  O   UNL     1       0.757 -18.847 -16.680  0.00  0.00    +0.000 OA
ATOM     26  H   UNL     1       0.646 -19.445 -17.439  0.00  0.00    +0.000 HD
ENDBRANCH   9  25
TORSDOF 3
ENDMDL
MODEL 8
REMARK VINA RESULT:      -5.8     18.159     20.105
REMARK  Name = Lobelin.pdbqt.pdb
REMARK  3 active torsions:
REMARK  status: ('A' for Active; 'I' for Inactive)
REMARK    1  A    between atoms: C_9  and  O_10
REMARK    2  A    between atoms: C_9  and  C_12
REMARK    3  A    between atoms: C_19  and  C_21
REMARK                            x       y       z     vdW  Elec       q    Type
REMARK                         _______ _______ _______ _____ _____    ______ ____
ROOT
ATOM      1  N   UNL     1      -3.765 -18.629 -16.097  0.00  0.00    +0.000 N 
ATOM      2  C   UNL     1      -5.162 -18.802 -16.480  0.00  0.00    +0.000 C 
ATOM      3  C   UNL     1      -2.756 -19.579 -16.556  0.00  0.00    +0.000 C 
ATOM      4  C   UNL     1      -5.413 -19.914 -17.341  0.00  0.00    +0.000 C 
ATOM      5  C   UNL     1      -3.251 -20.613 -17.408  0.00  0.00    +0.000 C 
ATOM      6  C   UNL     1      -4.596 -21.022 -17.979  0.00  0.00    +0.000 C 
ATOM      7  C   UNL     1      -3.395 -17.591 -15.160  0.00  0.00    +0.000 C 
ATOM      8  C   UNL     1      -6.190 -17.925 -16.042  0.00  0.00    +0.000 C 
ATOM      9  C   UNL     1      -7.208 -17.030 -15.620  0.00  0.00    +0.000 C 
ATOM     10  C   UNL     1      -1.390 -19.471 -16.191  0.00  0.00    +0.000 C 
ATOM     11  C   UNL     1       0.002 -19.342 -15.848  0.00  0.00    +0.000 C 
ATOM     12  O   UNL     1       0.839 -19.343 -16.739  0.00  0.00    +0.000 OA
ENDROOT
BRANCH   9  13
ATOM     13  C   UNL     1      -7.251 -15.609 -15.968  0.00  0.00    +0.000 A 
ATOM     14  C   UNL     1      -6.174 -14.998 -16.616  0.00  0.00    +0.000 A 
ATOM     15  C   UNL     1      -6.214 -13.645 -16.949  0.00  0.00    +0.000 A 
ATOM     16  C   UNL     1      -7.337 -12.886 -16.636  0.00  0.00    +0.000 A 
ATOM     17  C   UNL     1      -8.418 -13.479 -15.989  0.00  0.00    +0.000 A 
ATOM     18  C   UNL     1      -8.371 -14.832 -15.659  0.00  0.00    +0.000 A 
ENDBRANCH   9  13
BRANCH  11  19
ATOM     19  C   UNL     1       0.367 -19.223 -14.426  0.00  0.00    +0.000 A 
ATOM     20  C   UNL     1       0.904 -20.304 -13.725  0.00  0.00    +0.000 A 
ATOM     21  C   UNL     1       1.246 -20.159 -12.382  0.00  0.00    +0.000 A 
ATOM     22  C   UNL     1       1.053 -18.936 -11.743  0.00  0.00    +0.000 A 
ATOM     23  C   UNL     1       0.521 -17.856 -12.445  0.00  0.00    +0.000 A 
ATOM     24  C   UNL     1       0.178 -17.998 -13.787  0.00  0.00    +0.000 A 
ENDBRANCH  11  19
BRANCH   9  25
ATOM     25  O   UNL     1      -8.234 -17.510 -14.839  0.00  0.00    +0.000 OA
ATOM     26  H   UNL     1      -9.096 -17.151 -15.110  0.00  0.00    +0.000 HD
ENDBRANCH   9  25
TORSDOF 3
ENDMDL
MODEL 9
REMARK VINA RESULT:      -5.7      2.853      3.591
REMARK  Name = Lobelin.pdbqt.pdb
REMARK  3 active torsions:
REMARK  status: ('A' for Active; 'I' for Inactive)
REMARK    1  A    between atoms: C_9  and  O_10
REMARK    2  A    between atoms: C_9  and  C_12
REMARK    3  A    between atoms: C_19  and  C_21
REMARK                            x       y       z     vdW  Elec       q    Type
REMARK                         _______ _______ _______ _____ _____    ______ ____
ROOT
ATOM      1  N   UNL     1      -3.989 -35.722  -5.333  0.00  0.00    +0.000 N 
ATOM      2  C   UNL     1      -4.331 -35.924  -3.929  0.00  0.00    +0.000 C 
ATOM      3  C   UNL     1      -2.843 -36.413  -5.915  0.00  0.00    +0.000 C 
ATOM      4  C   UNL     1      -3.495 -36.853  -3.237  0.00  0.00    +0.000 C 
ATOM      5  C   UNL     1      -2.157 -37.291  -5.021  0.00  0.00    +0.000 C 
ATOM      6  C   UNL     1      -2.287 -37.711  -3.569  0.00  0.00    +0.000 C 
ATOM      7  C   UNL     1      -4.707 -34.742  -6.118  0.00  0.00    +0.000 C 
ATOM      8  C   UNL     1      -5.418 -35.258  -3.302  0.00  0.00    +0.000 C 
ATOM      9  C   UNL     1      -6.521 -34.608  -2.689  0.00  0.00    +0.000 C 
ATOM     10  C   UNL     1      -2.453 -36.232  -7.266  0.00  0.00    +0.000 C 
ATOM     11  C   UNL     1      -2.078 -36.073  -8.646  0.00  0.00    +0.000 C 
ATOM     12  O   UNL     1      -1.936 -37.066  -9.344  0.00  0.00    +0.000 OA
ENDROOT
BRANCH   9  13
ATOM     13  C   UNL     1      -7.915 -34.796  -3.093  0.00  0.00    +0.000 A 
ATOM     14  C   UNL     1      -8.233 -35.280  -4.365  0.00  0.00    +0.000 A 
ATOM     15  C   UNL     1      -9.561 -35.460  -4.750  0.00  0.00    +0.000 A 
ATOM     16  C   UNL     1     -10.589 -35.157  -3.863  0.00  0.00    +0.000 A 
ATOM     17  C   UNL     1     -10.289 -34.673  -2.593  0.00  0.00    +0.000 A 
ATOM     18  C   UNL     1      -8.960 -34.494  -2.214  0.00  0.00    +0.000 A 
ENDBRANCH   9  13
BRANCH  11  19
ATOM     19  C   UNL     1      -1.865 -34.710  -9.165  0.00  0.00    +0.000 A 
ATOM     20  C   UNL     1      -2.612 -33.631  -8.691  0.00  0.00    +0.000 A 
ATOM     21  C   UNL     1      -2.383 -32.354  -9.196  0.00  0.00    +0.000 A 
ATOM     22  C   UNL     1      -1.409 -32.155 -10.172  0.00  0.00    +0.000 A 
ATOM     23  C   UNL     1      -0.661 -33.233 -10.643  0.00  0.00    +0.000 A 
ATOM     24  C   UNL     1      -0.888 -34.511 -10.139  0.00  0.00    +0.000 A 
ENDBRANCH  11  19
BRANCH   9  25
ATOM     25  O   UNL     1      -6.289 -33.746  -1.642  0.00  0.00    +0.000 OA
ATOM     26  H   UNL     1      -5.780 -32.966  -1.920  0.00  0.00    +0.000 HD
ENDBRANCH   9  25
TORSDOF 3
ENDMDL
