MODEL 1
REMARK VINA RESULT:      -5.6      0.000      0.000
REMARK  Name = LUCANTHONE.pdbqt.pdb
REMARK  5 active torsions:
REMARK  status: ('A' for Active; 'I' for Inactive)
REMARK    1  A    between atoms: C_3  and  N_17
REMARK    2  A    between atoms: N_17  and  C_19
REMARK    3  A    between atoms: C_20  and  N_21
REMARK    4  A    between atoms: N_21  and  C_22
REMARK    5  A    between atoms: N_21  and  C_24
REMARK                            x       y       z     vdW  Elec       q    Type
REMARK                         _______ _______ _______ _____ _____    ______ ____
ROOT
ATOM      1  S   UNL     1      -2.255 -35.845  -9.100  0.00  0.00    +0.000 S 
ATOM      2  O   UNL     1      -0.896 -32.075 -10.755  0.00  0.00    +0.000 OA
ATOM      3  C   UNL     1       1.111 -34.021 -10.658  0.00  0.00    +0.000 A 
ATOM      4  C   UNL     1      -0.197 -34.237 -10.139  0.00  0.00    +0.000 A 
ATOM      5  C   UNL     1      -0.600 -35.520  -9.713  0.00  0.00    +0.000 A 
ATOM      6  C   UNL     1       0.333 -36.580  -9.806  0.00  0.00    +0.000 A 
ATOM      7  C   UNL     1      -1.132 -33.076 -10.079  0.00  0.00    +0.000 A 
ATOM      8  C   UNL     1       2.002 -35.099 -10.701  0.00  0.00    +0.000 A 
ATOM      9  C   UNL     1      -2.317 -33.071  -9.212  0.00  0.00    +0.000 A 
ATOM     10  C   UNL     1       1.617 -36.366 -10.295  0.00  0.00    +0.000 A 
ATOM     11  C   UNL     1      -2.866 -34.241  -8.709  0.00  0.00    +0.000 A 
ATOM     12  C   UNL     1       0.029 -38.001  -9.384  0.00  0.00    +0.000 C 
ATOM     13  C   UNL     1      -2.898 -31.834  -8.911  0.00  0.00    +0.000 A 
ATOM     14  C   UNL     1      -3.998 -34.161  -7.894  0.00  0.00    +0.000 A 
ATOM     15  C   UNL     1      -4.021 -31.763  -8.093  0.00  0.00    +0.000 A 
ATOM     16  C   UNL     1      -4.572 -32.932  -7.580  0.00  0.00    +0.000 A 
ENDROOT
BRANCH   3  17
ATOM     17  N   UNL     1       1.585 -32.721 -10.975  0.00  0.00    +0.000 N 
ATOM     18  H   UNL     1       1.576 -32.557 -11.993  0.00  0.00    +0.000 HD
BRANCH  17  19
ATOM     19  C   UNL     1       2.711 -32.170 -10.241  0.00  0.00    +0.000 C 
ATOM     20  C   UNL     1       3.899 -31.588  -9.468  0.00  0.00    +0.000 C 
BRANCH  20  21
ATOM     21  N   UNL     1       5.034 -31.038  -8.744  0.00  0.00    +0.000 N 
BRANCH  21  22
ATOM     22  C   UNL     1       4.614 -30.844  -7.368  0.00  0.00    +0.000 C 
ATOM     23  C   UNL     1       4.178 -30.653  -5.913  0.00  0.00    +0.000 C 
ENDBRANCH  21  22
BRANCH  21  24
ATOM     24  C   UNL     1       5.286 -29.716  -9.287  0.00  0.00    +0.000 C 
ATOM     25  C   UNL     1       5.533 -28.321  -9.868  0.00  0.00    +0.000 C 
ENDBRANCH  21  24
ENDBRANCH  20  21
ENDBRANCH  17  19
ENDBRANCH   3  17
TORSDOF 5
ENDMDL
MODEL 2
REMARK VINA RESULT:      -5.1     17.160     18.953
REMARK  Name = LUCANTHONE.pdbqt.pdb
REMARK  5 active torsions:
REMARK  status: ('A' for Active; 'I' for Inactive)
REMARK    1  A    between atoms: C_3  and  N_17
REMARK    2  A    between atoms: N_17  and  C_19
REMARK    3  A    between atoms: C_20  and  N_21
REMARK    4  A    between atoms: N_21  and  C_22
REMARK    5  A    between atoms: N_21  and  C_24
REMARK                            x       y       z     vdW  Elec       q    Type
REMARK                         _______ _______ _______ _____ _____    ______ ____
ROOT
ATOM      1  S   UNL     1      -4.107 -16.365   0.035  0.00  0.00    +0.000 S 
ATOM      2  O   UNL     1      -0.154 -17.906  -0.856  0.00  0.00    +0.000 OA
ATOM      3  C   UNL     1      -0.959 -15.870  -2.596  0.00  0.00    +0.000 A 
ATOM      4  C   UNL     1      -1.805 -16.391  -1.577  0.00  0.00    +0.000 A 
ATOM      5  C   UNL     1      -3.035 -15.771  -1.276  0.00  0.00    +0.000 A 
ATOM      6  C   UNL     1      -3.409 -14.626  -2.019  0.00  0.00    +0.000 A 
ATOM      7  C   UNL     1      -1.344 -17.595  -0.826  0.00  0.00    +0.000 A 
ATOM      8  C   UNL     1      -1.390 -14.752  -3.319  0.00  0.00    +0.000 A 
ATOM      9  C   UNL     1      -2.271 -18.447  -0.070  0.00  0.00    +0.000 A 
ATOM     10  C   UNL     1      -2.591 -14.127  -3.028  0.00  0.00    +0.000 A 
ATOM     11  C   UNL     1      -3.523 -18.000   0.327  0.00  0.00    +0.000 A 
ATOM     12  C   UNL     1      -4.699 -13.868  -1.798  0.00  0.00    +0.000 C 
ATOM     13  C   UNL     1      -1.847 -19.740   0.256  0.00  0.00    +0.000 A 
ATOM     14  C   UNL     1      -4.350 -18.863   1.049  0.00  0.00    +0.000 A 
ATOM     15  C   UNL     1      -2.681 -20.595   0.969  0.00  0.00    +0.000 A 
ATOM     16  C   UNL     1      -3.939 -20.156   1.365  0.00  0.00    +0.000 A 
ENDROOT
BRANCH   3  17
ATOM     17  N   UNL     1       0.222 -16.543  -3.006  0.00  0.00    +0.000 N 
ATOM     18  H   UNL     1       0.653 -17.054  -2.221  0.00  0.00    +0.000 HD
BRANCH  17  19
ATOM     19  C   UNL     1       1.133 -15.892  -3.932  0.00  0.00    +0.000 C 
ATOM     20  C   UNL     1       2.094 -15.208  -4.909  0.00  0.00    +0.000 C 
BRANCH  20  21
ATOM     21  N   UNL     1       3.016 -14.559  -5.828  0.00  0.00    +0.000 N 
BRANCH  21  22
ATOM     22  C   UNL     1       3.566 -13.404  -5.143  0.00  0.00    +0.000 C 
ATOM     23  C   UNL     1       4.142 -12.190  -4.408  0.00  0.00    +0.000 C 
ENDBRANCH  21  22
BRANCH  21  24
ATOM     24  C   UNL     1       2.227 -14.046  -6.932  0.00  0.00    +0.000 C 
ATOM     25  C   UNL     1       1.381 -13.494  -8.084  0.00  0.00    +0.000 C 
ENDBRANCH  21  24
ENDBRANCH  20  21
ENDBRANCH  17  19
ENDBRANCH   3  17
TORSDOF 5
ENDMDL
MODEL 3
REMARK VINA RESULT:      -4.8      2.485      3.329
REMARK  Name = LUCANTHONE.pdbqt.pdb
REMARK  5 active torsions:
REMARK  status: ('A' for Active; 'I' for Inactive)
REMARK    1  A    between atoms: C_3  and  N_17
REMARK    2  A    between atoms: N_17  and  C_19
REMARK    3  A    between atoms: C_20  and  N_21
REMARK    4  A    between atoms: N_21  and  C_22
REMARK    5  A    between atoms: N_21  and  C_24
REMARK                            x       y       z     vdW  Elec       q    Type
REMARK                         _______ _______ _______ _____ _____    ______ ____
ROOT
ATOM      1  S   UNL     1      -1.574 -35.994  -9.559  0.00  0.00    +0.000 S 
ATOM      2  O   UNL     1      -1.250 -31.800 -10.611  0.00  0.00    +0.000 OA
ATOM      3  C   UNL     1       1.210 -33.131 -10.622  0.00  0.00    +0.000 A 
ATOM      4  C   UNL     1      -0.005 -33.762 -10.231  0.00  0.00    +0.000 A 
ATOM      5  C   UNL     1      -0.053 -35.153 -10.004  0.00  0.00    +0.000 A 
ATOM      6  C   UNL     1       1.138 -35.900 -10.166  0.00  0.00    +0.000 A 
ATOM      7  C   UNL     1      -1.223 -32.914 -10.088  0.00  0.00    +0.000 A 
ATOM      8  C   UNL     1       2.364 -33.914 -10.741  0.00  0.00    +0.000 A 
ATOM      9  C   UNL     1      -2.393 -33.351  -9.315  0.00  0.00    +0.000 A 
ATOM     10  C   UNL     1       2.329 -35.282 -10.531  0.00  0.00    +0.000 A 
ATOM     11  C   UNL     1      -2.615 -34.686  -9.008  0.00  0.00    +0.000 A 
ATOM     12  C   UNL     1       1.222 -37.396  -9.955  0.00  0.00    +0.000 C 
ATOM     13  C   UNL     1      -3.301 -32.371  -8.899  0.00  0.00    +0.000 A 
ATOM     14  C   UNL     1      -3.752 -35.029  -8.273  0.00  0.00    +0.000 A 
ATOM     15  C   UNL     1      -4.427 -32.722  -8.161  0.00  0.00    +0.000 A 
ATOM     16  C   UNL     1      -4.653 -34.056  -7.844  0.00  0.00    +0.000 A 
ENDROOT
BRANCH   3  17
ATOM     17  N   UNL     1       1.319 -31.720 -10.735  0.00  0.00    +0.000 N 
ATOM     18  H   UNL     1       0.426 -31.257 -10.509  0.00  0.00    +0.000 HD
BRANCH  17  19
ATOM     19  C   UNL     1       2.090 -31.146 -11.824  0.00  0.00    +0.000 C 
ATOM     20  C   UNL     1       2.901 -30.539 -12.974  0.00  0.00    +0.000 C 
BRANCH  20  21
ATOM     21  N   UNL     1       3.661 -29.964 -14.072  0.00  0.00    +0.000 N 
BRANCH  21  22
ATOM     22  C   UNL     1       4.243 -28.724 -13.591  0.00  0.00    +0.000 C 
ATOM     23  C   UNL     1       4.842 -27.410 -13.083  0.00  0.00    +0.000 C 
ENDBRANCH  21  22
BRANCH  21  24
ATOM     24  C   UNL     1       2.710 -29.599 -15.104  0.00  0.00    +0.000 C 
ATOM     25  C   UNL     1       1.693 -29.206 -16.180  0.00  0.00    +0.000 C 
ENDBRANCH  21  24
ENDBRANCH  20  21
ENDBRANCH  17  19
ENDBRANCH   3  17
TORSDOF 5
ENDMDL
MODEL 4
REMARK VINA RESULT:      -4.8      6.469     10.469
REMARK  Name = LUCANTHONE.pdbqt.pdb
REMARK  5 active torsions:
REMARK  status: ('A' for Active; 'I' for Inactive)
REMARK    1  A    between atoms: C_3  and  N_17
REMARK    2  A    between atoms: N_17  and  C_19
REMARK    3  A    between atoms: C_20  and  N_21
REMARK    4  A    between atoms: N_21  and  C_22
REMARK    5  A    between atoms: N_21  and  C_24
REMARK                            x       y       z     vdW  Elec       q    Type
REMARK                         _______ _______ _______ _____ _____    ______ ____
ROOT
ATOM      1  S   UNL     1      -3.088 -35.832  -6.706  0.00  0.00    +0.000 S 
ATOM      2  O   UNL     1      -5.742 -32.712  -5.284  0.00  0.00    +0.000 OA
ATOM      3  C   UNL     1      -6.716 -35.289  -4.802  0.00  0.00    +0.000 A 
ATOM      4  C   UNL     1      -5.508 -35.043  -5.514  0.00  0.00    +0.000 A 
ATOM      5  C   UNL     1      -4.644 -36.104  -5.853  0.00  0.00    +0.000 A 
ATOM      6  C   UNL     1      -5.014 -37.417  -5.476  0.00  0.00    +0.000 A 
ATOM      7  C   UNL     1      -5.176 -33.633  -5.871  0.00  0.00    +0.000 A 
ATOM      8  C   UNL     1      -7.047 -36.609  -4.478  0.00  0.00    +0.000 A 
ATOM      9  C   UNL     1      -4.211 -33.301  -6.928  0.00  0.00    +0.000 A 
ATOM     10  C   UNL     1      -6.203 -37.660  -4.797  0.00  0.00    +0.000 A 
ATOM     11  C   UNL     1      -3.273 -34.217  -7.381  0.00  0.00    +0.000 A 
ATOM     12  C   UNL     1      -4.179 -38.642  -5.779  0.00  0.00    +0.000 C 
ATOM     13  C   UNL     1      -4.256 -32.010  -7.467  0.00  0.00    +0.000 A 
ATOM     14  C   UNL     1      -2.383 -33.830  -8.386  0.00  0.00    +0.000 A 
ATOM     15  C   UNL     1      -3.370 -31.636  -8.472  0.00  0.00    +0.000 A 
ATOM     16  C   UNL     1      -2.431 -32.551  -8.936  0.00  0.00    +0.000 A 
ENDROOT
BRANCH   3  17
ATOM     17  N   UNL     1      -7.664 -34.260  -4.558  0.00  0.00    +0.000 N 
ATOM     18  H   UNL     1      -7.450 -33.415  -5.109  0.00  0.00    +0.000 HD
BRANCH  17  19
ATOM     19  C   UNL     1      -8.155 -34.045  -3.207  0.00  0.00    +0.000 C 
ATOM     20  C   UNL     1      -8.675 -33.818  -1.784  0.00  0.00    +0.000 C 
BRANCH  20  21
ATOM     21  N   UNL     1      -9.176 -33.596  -0.437  0.00  0.00    +0.000 N 
BRANCH  21  22
ATOM     22  C   UNL     1     -10.411 -34.348  -0.307  0.00  0.00    +0.000 C 
ATOM     23  C   UNL     1     -11.714 -35.137  -0.155  0.00  0.00    +0.000 C 
ENDBRANCH  21  22
BRANCH  21  24
ATOM     24  C   UNL     1      -9.537 -32.194  -0.342  0.00  0.00    +0.000 C 
ATOM     25  C   UNL     1      -9.912 -30.714  -0.222  0.00  0.00    +0.000 C 
ENDBRANCH  21  24
ENDBRANCH  20  21
ENDBRANCH  17  19
ENDBRANCH   3  17
TORSDOF 5
ENDMDL
MODEL 5
REMARK VINA RESULT:      -4.7     16.879     18.655
REMARK  Name = LUCANTHONE.pdbqt.pdb
REMARK  5 active torsions:
REMARK  status: ('A' for Active; 'I' for Inactive)
REMARK    1  A    between atoms: C_3  and  N_17
REMARK    2  A    between atoms: N_17  and  C_19
REMARK    3  A    between atoms: C_20  and  N_21
REMARK    4  A    between atoms: N_21  and  C_22
REMARK    5  A    between atoms: N_21  and  C_24
REMARK                            x       y       z     vdW  Elec       q    Type
REMARK                         _______ _______ _______ _____ _____    ______ ____
ROOT
ATOM      1  S   UNL     1      -2.523 -17.131  -0.829  0.00  0.00    +0.000 S 
ATOM      2  O   UNL     1       1.697 -16.624  -1.686  0.00  0.00    +0.000 OA
ATOM      3  C   UNL     1       0.038 -15.294  -3.502  0.00  0.00    +0.000 A 
ATOM      4  C   UNL     1      -0.469 -16.115  -2.456  0.00  0.00    +0.000 A 
ATOM      5  C   UNL     1      -1.850 -16.149  -2.171  0.00  0.00    +0.000 A 
ATOM      6  C   UNL     1      -2.716 -15.354  -2.959  0.00  0.00    +0.000 A 
ATOM      7  C   UNL     1       0.503 -16.919  -1.659  0.00  0.00    +0.000 A 
ATOM      8  C   UNL     1      -0.866 -14.550  -4.268  0.00  0.00    +0.000 A 
ATOM      9  C   UNL     1       0.087 -18.081  -0.861  0.00  0.00    +0.000 A 
ATOM     10  C   UNL     1      -2.224 -14.565  -3.994  0.00  0.00    +0.000 A 
ATOM     11  C   UNL     1      -1.231 -18.272  -0.473  0.00  0.00    +0.000 A 
ATOM     12  C   UNL     1      -4.215 -15.298  -2.759  0.00  0.00    +0.000 C 
ATOM     13  C   UNL     1       1.074 -18.998  -0.484  0.00  0.00    +0.000 A 
ATOM     14  C   UNL     1      -1.553 -19.396   0.291  0.00  0.00    +0.000 A 
ATOM     15  C   UNL     1       0.742 -20.118   0.271  0.00  0.00    +0.000 A 
ATOM     16  C   UNL     1      -0.577 -20.321   0.658  0.00  0.00    +0.000 A 
ENDROOT
BRANCH   3  17
ATOM     17  N   UNL     1       1.402 -15.336  -3.893  0.00  0.00    +0.000 N 
ATOM     18  H   UNL     1       2.017 -14.979  -3.146  0.00  0.00    +0.000 HD
BRANCH  17  19
ATOM     19  C   UNL     1       1.768 -14.985  -5.255  0.00  0.00    +0.000 C 
ATOM     20  C   UNL     1       2.154 -14.614  -6.690  0.00  0.00    +0.000 C 
BRANCH  20  21
ATOM     21  N   UNL     1       2.514 -14.253  -8.052  0.00  0.00    +0.000 N 
BRANCH  21  22
ATOM     22  C   UNL     1       3.658 -15.064  -8.426  0.00  0.00    +0.000 C 
ATOM     23  C   UNL     1       4.874 -15.910  -8.813  0.00  0.00    +0.000 C 
ENDBRANCH  21  22
BRANCH  21  24
ATOM     24  C   UNL     1       2.977 -12.878  -8.021  0.00  0.00    +0.000 C 
ATOM     25  C   UNL     1       3.479 -11.432  -7.972  0.00  0.00    +0.000 C 
ENDBRANCH  21  24
ENDBRANCH  20  21
ENDBRANCH  17  19
ENDBRANCH   3  17
TORSDOF 5
ENDMDL
MODEL 6
REMARK VINA RESULT:      -4.6     16.523     19.230
REMARK  Name = LUCANTHONE.pdbqt.pdb
REMARK  5 active torsions:
REMARK  status: ('A' for Active; 'I' for Inactive)
REMARK    1  A    between atoms: C_3  and  N_17
REMARK    2  A    between atoms: N_17  and  C_19
REMARK    3  A    between atoms: C_20  and  N_21
REMARK    4  A    between atoms: N_21  and  C_22
REMARK    5  A    between atoms: N_21  and  C_24
REMARK                            x       y       z     vdW  Elec       q    Type
REMARK                         _______ _______ _______ _____ _____    ______ ____
ROOT
ATOM      1  S   UNL     1       3.958 -14.856  -4.855  0.00  0.00    +0.000 S 
ATOM      2  O   UNL     1      -0.330 -14.659  -4.251  0.00  0.00    +0.000 OA
ATOM      3  C   UNL     1       0.918 -16.587  -2.656  0.00  0.00    +0.000 A 
ATOM      4  C   UNL     1       1.622 -15.813  -3.621  0.00  0.00    +0.000 A 
ATOM      5  C   UNL     1       3.030 -15.854  -3.688  0.00  0.00    +0.000 A 
ATOM      6  C   UNL     1       3.720 -16.692  -2.780  0.00  0.00    +0.000 A 
ATOM      7  C   UNL     1       0.831 -14.945  -4.540  0.00  0.00    +0.000 A 
ATOM      8  C   UNL     1       1.649 -17.419  -1.801  0.00  0.00    +0.000 A 
ATOM      9  C   UNL     1       1.382 -14.439  -5.805  0.00  0.00    +0.000 A 
ATOM     10  C   UNL     1       3.032 -17.463  -1.849  0.00  0.00    +0.000 A 
ATOM     11  C   UNL     1       2.747 -14.390  -6.045  0.00  0.00    +0.000 A 
ATOM     12  C   UNL     1       5.227 -16.828  -2.746  0.00  0.00    +0.000 C 
ATOM     13  C   UNL     1       0.478 -13.989  -6.774  0.00  0.00    +0.000 A 
ATOM     14  C   UNL     1       3.200 -13.891  -7.268  0.00  0.00    +0.000 A 
ATOM     15  C   UNL     1       0.938 -13.500  -7.992  0.00  0.00    +0.000 A 
ATOM     16  C   UNL     1       2.305 -13.454  -8.242  0.00  0.00    +0.000 A 
ENDROOT
BRANCH   3  17
ATOM     17  N   UNL     1      -0.500 -16.663  -2.647  0.00  0.00    +0.000 N 
ATOM     18  H   UNL     1      -0.923 -15.802  -3.026  0.00  0.00    +0.000 HD
BRANCH  17  19
ATOM     19  C   UNL     1      -1.177 -17.273  -1.516  0.00  0.00    +0.000 C 
ATOM     20  C   UNL     1      -1.890 -17.918  -0.323  0.00  0.00    +0.000 C 
BRANCH  20  21
ATOM     21  N   UNL     1      -2.568 -18.540   0.803  0.00  0.00    +0.000 N 
BRANCH  21  22
ATOM     22  C   UNL     1      -2.304 -19.966   0.732  0.00  0.00    +0.000 C 
ATOM     23  C   UNL     1      -2.016 -21.467   0.645  0.00  0.00    +0.000 C 
ENDBRANCH  21  22
BRANCH  21  24
ATOM     24  C   UNL     1      -3.993 -18.375   0.587  0.00  0.00    +0.000 C 
ATOM     25  C   UNL     1      -5.498 -18.186   0.374  0.00  0.00    +0.000 C 
ENDBRANCH  21  24
ENDBRANCH  20  21
ENDBRANCH  17  19
ENDBRANCH   3  17
TORSDOF 5
ENDMDL
MODEL 7
REMARK VINA RESULT:      -4.6     18.718     20.664
REMARK  Name = LUCANTHONE.pdbqt.pdb
REMARK  5 active torsions:
REMARK  status: ('A' for Active; 'I' for Inactive)
REMARK    1  A    between atoms: C_3  and  N_17
REMARK    2  A    between atoms: N_17  and  C_19
REMARK    3  A    between atoms: C_20  and  N_21
REMARK    4  A    between atoms: N_21  and  C_22
REMARK    5  A    between atoms: N_21  and  C_24
REMARK                            x       y       z     vdW  Elec       q    Type
REMARK                         _______ _______ _______ _____ _____    ______ ____
ROOT
ATOM      1  S   UNL     1      -5.402 -15.148   2.395  0.00  0.00    +0.000 S 
ATOM      2  O   UNL     1      -2.820 -16.847  -0.646  0.00  0.00    +0.000 OA
ATOM      3  C   UNL     1      -4.380 -14.725  -1.587  0.00  0.00    +0.000 A 
ATOM      4  C   UNL     1      -4.492 -15.235  -0.263  0.00  0.00    +0.000 A 
ATOM      5  C   UNL     1      -5.274 -14.567   0.702  0.00  0.00    +0.000 A 
ATOM      6  C   UNL     1      -5.950 -13.385   0.316  0.00  0.00    +0.000 A 
ATOM      7  C   UNL     1      -3.745 -16.480   0.077  0.00  0.00    +0.000 A 
ATOM      8  C   UNL     1      -5.092 -13.568  -1.923  0.00  0.00    +0.000 A 
ATOM      9  C   UNL     1      -4.096 -17.310   1.239  0.00  0.00    +0.000 A 
ATOM     10  C   UNL     1      -5.856 -12.896  -0.983  0.00  0.00    +0.000 A 
ATOM     11  C   UNL     1      -4.848 -16.816   2.294  0.00  0.00    +0.000 A 
ATOM     12  C   UNL     1      -6.819 -12.573   1.252  0.00  0.00    +0.000 C 
ATOM     13  C   UNL     1      -3.633 -18.630   1.258  0.00  0.00    +0.000 A 
ATOM     14  C   UNL     1      -5.139 -17.660   3.369  0.00  0.00    +0.000 A 
ATOM     15  C   UNL     1      -3.934 -19.465   2.329  0.00  0.00    +0.000 A 
ATOM     16  C   UNL     1      -4.693 -18.980   3.388  0.00  0.00    +0.000 A 
ENDROOT
BRANCH   3  17
ATOM     17  N   UNL     1      -3.706 -15.441  -2.610  0.00  0.00    +0.000 N 
ATOM     18  H   UNL     1      -3.625 -16.442  -2.376  0.00  0.00    +0.000 HD
BRANCH  17  19
ATOM     19  C   UNL     1      -2.562 -14.837  -3.272  0.00  0.00    +0.000 C 
ATOM     20  C   UNL     1      -1.355 -14.201  -3.969  0.00  0.00    +0.000 C 
BRANCH  20  21
ATOM     21  N   UNL     1      -0.206 -13.592  -4.620  0.00  0.00    +0.000 N 
BRANCH  21  22
ATOM     22  C   UNL     1      -0.456 -13.620  -6.050  0.00  0.00    +0.000 C 
ATOM     23  C   UNL     1      -0.706 -13.658  -7.560  0.00  0.00    +0.000 C 
ENDBRANCH  21  22
BRANCH  21  24
ATOM     24  C   UNL     1       0.930 -14.462  -4.384  0.00  0.00    +0.000 C 
ATOM     25  C   UNL     1       2.118 -15.398  -4.139  0.00  0.00    +0.000 C 
ENDBRANCH  21  24
ENDBRANCH  20  21
ENDBRANCH  17  19
ENDBRANCH   3  17
TORSDOF 5
ENDMDL
MODEL 8
REMARK VINA RESULT:      -4.5     17.756     20.879
REMARK  Name = LUCANTHONE.pdbqt.pdb
REMARK  5 active torsions:
REMARK  status: ('A' for Active; 'I' for Inactive)
REMARK    1  A    between atoms: C_3  and  N_17
REMARK    2  A    between atoms: N_17  and  C_19
REMARK    3  A    between atoms: C_20  and  N_21
REMARK    4  A    between atoms: N_21  and  C_22
REMARK    5  A    between atoms: N_21  and  C_24
REMARK                            x       y       z     vdW  Elec       q    Type
REMARK                         _______ _______ _______ _____ _____    ______ ____
ROOT
ATOM      1  S   UNL     1       0.449 -16.700  -2.546  0.00  0.00    +0.000 S 
ATOM      2  O   UNL     1      -2.632 -18.310   0.045  0.00  0.00    +0.000 OA
ATOM      3  C   UNL     1      -3.167 -15.702  -0.812  0.00  0.00    +0.000 A 
ATOM      4  C   UNL     1      -1.963 -16.387  -1.138  0.00  0.00    +0.000 A 
ATOM      5  C   UNL     1      -1.055 -15.845  -2.071  0.00  0.00    +0.000 A 
ATOM      6  C   UNL     1      -1.368 -14.599  -2.664  0.00  0.00    +0.000 A 
ATOM      7  C   UNL     1      -1.701 -17.701  -0.481  0.00  0.00    +0.000 A 
ATOM      8  C   UNL     1      -3.414 -14.460  -1.408  0.00  0.00    +0.000 A 
ATOM      9  C   UNL     1      -0.355 -18.286  -0.413  0.00  0.00    +0.000 A 
ATOM     10  C   UNL     1      -2.536 -13.919  -2.333  0.00  0.00    +0.000 A 
ATOM     11  C   UNL     1       0.665 -17.886  -1.263  0.00  0.00    +0.000 A 
ATOM     12  C   UNL     1      -0.482 -13.908  -3.677  0.00  0.00    +0.000 C 
ATOM     13  C   UNL     1      -0.128 -19.284   0.541  0.00  0.00    +0.000 A 
ATOM     14  C   UNL     1       1.919 -18.490  -1.145  0.00  0.00    +0.000 A 
ATOM     15  C   UNL     1       1.126 -19.875   0.657  0.00  0.00    +0.000 A 
ATOM     16  C   UNL     1       2.155 -19.475  -0.188  0.00  0.00    +0.000 A 
ENDROOT
BRANCH   3  17
ATOM     17  N   UNL     1      -4.036 -16.160   0.212  0.00  0.00    +0.000 N 
ATOM     18  H   UNL     1      -4.243 -17.165   0.106  0.00  0.00    +0.000 HD
BRANCH  17  19
ATOM     19  C   UNL     1      -5.134 -15.316   0.651  0.00  0.00    +0.000 C 
ATOM     20  C   UNL     1      -6.294 -14.426   1.111  0.00  0.00    +0.000 C 
BRANCH  20  21
ATOM     21  N   UNL     1      -7.393 -13.576   1.538  0.00  0.00    +0.000 N 
BRANCH  21  22
ATOM     22  C   UNL     1      -8.609 -14.362   1.440  0.00  0.00    +0.000 C 
ATOM     23  C   UNL     1      -9.895 -15.186   1.322  0.00  0.00    +0.000 C 
ENDBRANCH  21  22
BRANCH  21  24
ATOM     24  C   UNL     1      -7.513 -12.510   0.561  0.00  0.00    +0.000 C 
ATOM     25  C   UNL     1      -7.628 -11.372  -0.458  0.00  0.00    +0.000 C 
ENDBRANCH  21  24
ENDBRANCH  20  21
ENDBRANCH  17  19
ENDBRANCH   3  17
TORSDOF 5
ENDMDL
MODEL 9
REMARK VINA RESULT:      -4.5     18.036     21.263
REMARK  Name = LUCANTHONE.pdbqt.pdb
REMARK  5 active torsions:
REMARK  status: ('A' for Active; 'I' for Inactive)
REMARK    1  A    between atoms: C_3  and  N_17
REMARK    2  A    between atoms: N_17  and  C_19
REMARK    3  A    between atoms: C_20  and  N_21
REMARK    4  A    between atoms: N_21  and  C_22
REMARK    5  A    between atoms: N_21  and  C_24
REMARK                            x       y       z     vdW  Elec       q    Type
REMARK                         _______ _______ _______ _____ _____    ______ ____
ROOT
ATOM      1  S   UNL     1      -1.861 -16.678  -0.906  0.00  0.00    +0.000 S 
ATOM      2  O   UNL     1      -4.736 -19.311   0.991  0.00  0.00    +0.000 OA
ATOM      3  C   UNL     1      -5.429 -16.608   1.177  0.00  0.00    +0.000 A 
ATOM      4  C   UNL     1      -4.213 -17.052   0.586  0.00  0.00    +0.000 A 
ATOM      5  C   UNL     1      -3.377 -16.150  -0.105  0.00  0.00    +0.000 A 
ATOM      6  C   UNL     1      -3.775 -14.794  -0.185  0.00  0.00    +0.000 A 
ATOM      7  C   UNL     1      -3.860 -18.497   0.702  0.00  0.00    +0.000 A 
ATOM      8  C   UNL     1      -5.761 -15.251   1.091  0.00  0.00    +0.000 A 
ATOM      9  C   UNL     1      -2.487 -18.984   0.510  0.00  0.00    +0.000 A 
ATOM     10  C   UNL     1      -4.954 -14.356   0.409  0.00  0.00    +0.000 A 
ATOM     11  C   UNL     1      -1.529 -18.238  -0.161  0.00  0.00    +0.000 A 
ATOM     12  C   UNL     1      -2.971 -13.727  -0.895  0.00  0.00    +0.000 C 
ATOM     13  C   UNL     1      -2.169 -20.248   1.019  0.00  0.00    +0.000 A 
ATOM     14  C   UNL     1      -0.245 -18.767  -0.311  0.00  0.00    +0.000 A 
ATOM     15  C   UNL     1      -0.886 -20.763   0.871  0.00  0.00    +0.000 A 
ATOM     16  C   UNL     1       0.082 -20.019   0.205  0.00  0.00    +0.000 A 
ENDROOT
BRANCH   3  17
ATOM     17  N   UNL     1      -6.225 -17.463   1.984  0.00  0.00    +0.000 N 
ATOM     18  H   UNL     1      -6.055 -18.455   1.759  0.00  0.00    +0.000 HD
BRANCH  17  19
ATOM     19  C   UNL     1      -7.599 -17.093   2.280  0.00  0.00    +0.000 C 
ATOM     20  C   UNL     1      -9.047 -16.702   2.594  0.00  0.00    +0.000 C 
BRANCH  20  21
ATOM     21  N   UNL     1     -10.418 -16.330   2.904  0.00  0.00    +0.000 N 
BRANCH  21  22
ATOM     22  C   UNL     1     -11.212 -17.544   2.868  0.00  0.00    +0.000 C 
ATOM     23  C   UNL     1     -12.038 -18.834   2.831  0.00  0.00    +0.000 C 
ENDBRANCH  21  22
BRANCH  21  24
ATOM     24  C   UNL     1     -10.891 -15.498   1.814  0.00  0.00    +0.000 C 
ATOM     25  C   UNL     1     -11.376 -14.604   0.668  0.00  0.00    +0.000 C 
ENDBRANCH  21  24
ENDBRANCH  20  21
ENDBRANCH  17  19
ENDBRANCH   3  17
TORSDOF 5
ENDMDL
