MODEL 1
REMARK VINA RESULT:      -5.1      0.000      0.000
REMARK  Name = MeIQx.pdbqt.pdb
REMARK  0 active torsions:
REMARK  status: ('A' for Active; 'I' for Inactive)
REMARK                            x       y       z     vdW  Elec       q    Type
REMARK                         _______ _______ _______ _____ _____    ______ ____
ROOT
ATOM      1  N   UNL     1      -3.734 -33.858  -7.844  0.00  0.00    +0.000 N 
ATOM      2  N   UNL     1      -4.607 -32.205  -6.658  0.00  0.00    +0.000 NA
ATOM      3  N   UNL     1      -6.664 -32.636  -4.606  0.00  0.00    +0.000 NA
ATOM      4  N   UNL     1      -7.523 -35.315  -4.180  0.00  0.00    +0.000 NA
ATOM      5  C   UNL     1      -4.639 -34.467  -7.015  0.00  0.00    +0.000 A 
ATOM      6  C   UNL     1      -5.177 -33.411  -6.279  0.00  0.00    +0.000 A 
ATOM      7  C   UNL     1      -6.166 -33.692  -5.303  0.00  0.00    +0.000 A 
ATOM      8  C   UNL     1      -6.584 -35.030  -5.102  0.00  0.00    +0.000 A 
ATOM      9  C   UNL     1      -3.744 -32.493  -7.606  0.00  0.00    +0.000 A 
ATOM     10  C   UNL     1      -5.029 -35.796  -6.836  0.00  0.00    +0.000 A 
ATOM     11  C   UNL     1      -6.009 -36.035  -5.867  0.00  0.00    +0.000 A 
ATOM     12  C   UNL     1      -2.887 -34.541  -8.778  0.00  0.00    +0.000 C 
ATOM     13  C   UNL     1      -7.603 -32.942  -3.688  0.00  0.00    +0.000 A 
ATOM     14  C   UNL     1      -8.021 -34.254  -3.483  0.00  0.00    +0.000 A 
ATOM     15  C   UNL     1      -8.201 -31.831  -2.873  0.00  0.00    +0.000 C 
ATOM     16  N   UNL     1      -2.970 -31.600  -8.261  0.00  0.00    +0.000 N 
ATOM     17  H   UNL     1      -2.898 -30.659  -7.884  0.00  0.00    +0.000 HD
ATOM     18  H   UNL     1      -2.177 -31.907  -8.819  0.00  0.00    +0.000 HD
ENDROOT
TORSDOF 0
ENDMDL
MODEL 2
REMARK VINA RESULT:      -4.8      1.729      1.923
REMARK  Name = MeIQx.pdbqt.pdb
REMARK  0 active torsions:
REMARK  status: ('A' for Active; 'I' for Inactive)
REMARK                            x       y       z     vdW  Elec       q    Type
REMARK                         _______ _______ _______ _____ _____    ______ ____
ROOT
ATOM      1  N   UNL     1      -3.434 -33.956  -8.440  0.00  0.00    +0.000 N 
ATOM      2  N   UNL     1      -5.411 -33.132  -7.880  0.00  0.00    +0.000 NA
ATOM      3  N   UNL     1      -6.436 -33.190  -5.129  0.00  0.00    +0.000 NA
ATOM      4  N   UNL     1      -4.765 -34.372  -3.152  0.00  0.00    +0.000 NA
ATOM      5  C   UNL     1      -3.533 -34.176  -7.092  0.00  0.00    +0.000 A 
ATOM      6  C   UNL     1      -4.782 -33.652  -6.760  0.00  0.00    +0.000 A 
ATOM      7  C   UNL     1      -5.213 -33.714  -5.411  0.00  0.00    +0.000 A 
ATOM      8  C   UNL     1      -4.371 -34.305  -4.438  0.00  0.00    +0.000 A 
ATOM      9  C   UNL     1      -4.586 -33.328  -8.884  0.00  0.00    +0.000 A 
ATOM     10  C   UNL     1      -2.680 -34.762  -6.153  0.00  0.00    +0.000 A 
ATOM     11  C   UNL     1      -3.139 -34.808  -4.833  0.00  0.00    +0.000 A 
ATOM     12  C   UNL     1      -2.295 -34.289  -9.246  0.00  0.00    +0.000 C 
ATOM     13  C   UNL     1      -6.812 -33.268  -3.836  0.00  0.00    +0.000 A 
ATOM     14  C   UNL     1      -5.992 -33.847  -2.872  0.00  0.00    +0.000 A 
ATOM     15  C   UNL     1      -8.149 -32.709  -3.442  0.00  0.00    +0.000 C 
ATOM     16  N   UNL     1      -4.814 -32.974 -10.169  0.00  0.00    +0.000 N 
ATOM     17  H   UNL     1      -5.588 -32.345 -10.363  0.00  0.00    +0.000 HD
ATOM     18  H   UNL     1      -4.056 -32.954 -10.847  0.00  0.00    +0.000 HD
ENDROOT
TORSDOF 0
ENDMDL
MODEL 3
REMARK VINA RESULT:      -4.6      2.311      5.343
REMARK  Name = MeIQx.pdbqt.pdb
REMARK  0 active torsions:
REMARK  status: ('A' for Active; 'I' for Inactive)
REMARK                            x       y       z     vdW  Elec       q    Type
REMARK                         _______ _______ _______ _____ _____    ______ ____
ROOT
ATOM      1  N   UNL     1      -4.253 -36.749  -5.201  0.00  0.00    +0.000 N 
ATOM      2  N   UNL     1      -2.841 -36.391  -6.868  0.00  0.00    +0.000 NA
ATOM      3  N   UNL     1      -2.601 -33.794  -8.217  0.00  0.00    +0.000 NA
ATOM      4  N   UNL     1      -4.286 -31.696  -7.291  0.00  0.00    +0.000 NA
ATOM      5  C   UNL     1      -4.448 -35.438  -5.545  0.00  0.00    +0.000 A 
ATOM      6  C   UNL     1      -3.552 -35.233  -6.594  0.00  0.00    +0.000 A 
ATOM      7  C   UNL     1      -3.488 -33.953  -7.199  0.00  0.00    +0.000 A 
ATOM      8  C   UNL     1      -4.333 -32.918  -6.728  0.00  0.00    +0.000 A 
ATOM      9  C   UNL     1      -3.280 -37.296  -6.022  0.00  0.00    +0.000 A 
ATOM     10  C   UNL     1      -5.290 -34.436  -5.058  0.00  0.00    +0.000 A 
ATOM     11  C   UNL     1      -5.202 -33.187  -5.680  0.00  0.00    +0.000 A 
ATOM     12  C   UNL     1      -4.926 -37.427  -4.131  0.00  0.00    +0.000 C 
ATOM     13  C   UNL     1      -2.570 -32.563  -8.768  0.00  0.00    +0.000 A 
ATOM     14  C   UNL     1      -3.396 -31.540  -8.313  0.00  0.00    +0.000 A 
ATOM     15  C   UNL     1      -1.613 -32.305  -9.897  0.00  0.00    +0.000 C 
ATOM     16  N   UNL     1      -2.854 -38.576  -5.951  0.00  0.00    +0.000 N 
ATOM     17  H   UNL     1      -2.007 -38.829  -6.450  0.00  0.00    +0.000 HD
ATOM     18  H   UNL     1      -3.072 -39.155  -5.143  0.00  0.00    +0.000 HD
ENDROOT
TORSDOF 0
ENDMDL
MODEL 4
REMARK VINA RESULT:      -4.6      1.787      4.944
REMARK  Name = MeIQx.pdbqt.pdb
REMARK  0 active torsions:
REMARK  status: ('A' for Active; 'I' for Inactive)
REMARK                            x       y       z     vdW  Elec       q    Type
REMARK                         _______ _______ _______ _____ _____    ______ ____
ROOT
ATOM      1  N   UNL     1      -7.482 -34.983  -3.027  0.00  0.00    +0.000 N 
ATOM      2  N   UNL     1      -6.093 -33.349  -3.576  0.00  0.00    +0.000 NA
ATOM      3  N   UNL     1      -5.192 -32.890  -6.333  0.00  0.00    +0.000 NA
ATOM      4  N   UNL     1      -6.186 -34.658  -8.329  0.00  0.00    +0.000 NA
ATOM      5  C   UNL     1      -7.315 -35.110  -4.380  0.00  0.00    +0.000 A 
ATOM      6  C   UNL     1      -6.439 -34.075  -4.705  0.00  0.00    +0.000 A 
ATOM      7  C   UNL     1      -6.046 -33.912  -6.057  0.00  0.00    +0.000 A 
ATOM      8  C   UNL     1      -6.549 -34.799  -7.040  0.00  0.00    +0.000 A 
ATOM      9  C   UNL     1      -6.727 -33.914  -2.573  0.00  0.00    +0.000 A 
ATOM     10  C   UNL     1      -7.829 -35.999  -5.328  0.00  0.00    +0.000 A 
ATOM     11  C   UNL     1      -7.418 -35.809  -6.651  0.00  0.00    +0.000 A 
ATOM     12  C   UNL     1      -8.338 -35.807  -2.223  0.00  0.00    +0.000 C 
ATOM     13  C   UNL     1      -4.841 -32.766  -7.629  0.00  0.00    +0.000 A 
ATOM     14  C   UNL     1      -5.328 -33.633  -8.603  0.00  0.00    +0.000 A 
ATOM     15  C   UNL     1      -3.902 -31.659  -8.017  0.00  0.00    +0.000 C 
ATOM     16  N   UNL     1      -6.663 -33.519  -1.282  0.00  0.00    +0.000 N 
ATOM     17  H   UNL     1      -6.250 -32.614  -1.076  0.00  0.00    +0.000 HD
ATOM     18  H   UNL     1      -7.339 -33.855  -0.600  0.00  0.00    +0.000 HD
ENDROOT
TORSDOF 0
ENDMDL
MODEL 5
REMARK VINA RESULT:      -4.6     16.710     18.179
REMARK  Name = MeIQx.pdbqt.pdb
REMARK  0 active torsions:
REMARK  status: ('A' for Active; 'I' for Inactive)
REMARK                            x       y       z     vdW  Elec       q    Type
REMARK                         _______ _______ _______ _____ _____    ______ ____
ROOT
ATOM      1  N   UNL     1       2.262 -19.515 -12.020  0.00  0.00    +0.000 N 
ATOM      2  N   UNL     1       1.434 -20.839 -13.590  0.00  0.00    +0.000 NA
ATOM      3  N   UNL     1      -0.691 -19.985 -15.428  0.00  0.00    +0.000 NA
ATOM      4  N   UNL     1      -1.679 -17.334 -15.121  0.00  0.00    +0.000 NA
ATOM      5  C   UNL     1       1.311 -18.756 -12.647  0.00  0.00    +0.000 A 
ATOM      6  C   UNL     1       0.802 -19.605 -13.630  0.00  0.00    +0.000 A 
ATOM      7  C   UNL     1      -0.223 -19.126 -14.483  0.00  0.00    +0.000 A 
ATOM      8  C   UNL     1      -0.705 -17.805 -14.319  0.00  0.00    +0.000 A 
ATOM      9  C   UNL     1       2.307 -20.768 -12.611  0.00  0.00    +0.000 A 
ATOM     10  C   UNL     1       0.858 -17.447 -12.463  0.00  0.00    +0.000 A 
ATOM     11  C   UNL     1      -0.156 -17.010 -13.322  0.00  0.00    +0.000 A 
ATOM     12  C   UNL     1       3.102 -19.062 -10.950  0.00  0.00    +0.000 C 
ATOM     13  C   UNL     1      -1.666 -19.494 -16.221  0.00  0.00    +0.000 A 
ATOM     14  C   UNL     1      -2.147 -18.198 -16.067  0.00  0.00    +0.000 A 
ATOM     15  C   UNL     1      -2.234 -20.380 -17.293  0.00  0.00    +0.000 C 
ATOM     16  N   UNL     1       3.137 -21.763 -12.225  0.00  0.00    +0.000 N 
ATOM     17  H   UNL     1       3.240 -22.567 -12.838  0.00  0.00    +0.000 HD
ATOM     18  H   UNL     1       3.929 -21.575 -11.615  0.00  0.00    +0.000 HD
ENDROOT
TORSDOF 0
ENDMDL
MODEL 6
REMARK VINA RESULT:      -4.5     17.217     18.978
REMARK  Name = MeIQx.pdbqt.pdb
REMARK  0 active torsions:
REMARK  status: ('A' for Active; 'I' for Inactive)
REMARK                            x       y       z     vdW  Elec       q    Type
REMARK                         _______ _______ _______ _____ _____    ______ ____
ROOT
ATOM      1  N   UNL     1      -6.500 -17.436 -15.896  0.00  0.00    +0.000 N 
ATOM      2  N   UNL     1      -4.657 -16.351 -15.323  0.00  0.00    +0.000 NA
ATOM      3  N   UNL     1      -2.022 -17.641 -15.212  0.00  0.00    +0.000 NA
ATOM      4  N   UNL     1      -1.907 -20.405 -15.883  0.00  0.00    +0.000 NA
ATOM      5  C   UNL     1      -5.507 -18.377 -15.968  0.00  0.00    +0.000 A 
ATOM      6  C   UNL     1      -4.358 -17.675 -15.603  0.00  0.00    +0.000 A 
ATOM      7  C   UNL     1      -3.119 -18.362 -15.571  0.00  0.00    +0.000 A 
ATOM      8  C   UNL     1      -3.076 -19.737 -15.908  0.00  0.00    +0.000 A 
ATOM      9  C   UNL     1      -5.954 -16.226 -15.500  0.00  0.00    +0.000 A 
ATOM     10  C   UNL     1      -5.496 -19.732 -16.306  0.00  0.00    +0.000 A 
ATOM     11  C   UNL     1      -4.256 -20.377 -16.262  0.00  0.00    +0.000 A 
ATOM     12  C   UNL     1      -7.877 -17.669 -16.223  0.00  0.00    +0.000 C 
ATOM     13  C   UNL     1      -0.862 -18.329 -15.193  0.00  0.00    +0.000 A 
ATOM     14  C   UNL     1      -0.810 -19.680 -15.522  0.00  0.00    +0.000 A 
ATOM     15  C   UNL     1       0.397 -17.604 -14.810  0.00  0.00    +0.000 C 
ATOM     16  N   UNL     1      -6.664 -15.090 -15.326  0.00  0.00    +0.000 N 
ATOM     17  H   UNL     1      -6.156 -14.215 -15.233  0.00  0.00    +0.000 HD
ATOM     18  H   UNL     1      -7.612 -15.006 -15.687  0.00  0.00    +0.000 HD
ENDROOT
TORSDOF 0
ENDMDL
MODEL 7
REMARK VINA RESULT:      -4.3      3.185      5.272
REMARK  Name = MeIQx.pdbqt.pdb
REMARK  0 active torsions:
REMARK  status: ('A' for Active; 'I' for Inactive)
REMARK                            x       y       z     vdW  Elec       q    Type
REMARK                         _______ _______ _______ _____ _____    ______ ____
ROOT
ATOM      1  N   UNL     1      -3.286 -36.645  -2.924  0.00  0.00    +0.000 N 
ATOM      2  N   UNL     1      -2.110 -36.208  -4.748  0.00  0.00    +0.000 NA
ATOM      3  N   UNL     1      -2.902 -34.159  -6.696  0.00  0.00    +0.000 NA
ATOM      4  N   UNL     1      -5.292 -32.713  -6.152  0.00  0.00    +0.000 NA
ATOM      5  C   UNL     1      -3.980 -35.646  -3.553  0.00  0.00    +0.000 A 
ATOM      6  C   UNL     1      -3.225 -35.386  -4.697  0.00  0.00    +0.000 A 
ATOM      7  C   UNL     1      -3.667 -34.382  -5.594  0.00  0.00    +0.000 A 
ATOM      8  C   UNL     1      -4.858 -33.670  -5.311  0.00  0.00    +0.000 A 
ATOM      9  C   UNL     1      -2.166 -36.964  -3.674  0.00  0.00    +0.000 A 
ATOM     10  C   UNL     1      -5.157 -34.959  -3.246  0.00  0.00    +0.000 A 
ATOM     11  C   UNL     1      -5.563 -33.977  -4.155  0.00  0.00    +0.000 A 
ATOM     12  C   UNL     1      -3.649 -37.232  -1.667  0.00  0.00    +0.000 C 
ATOM     13  C   UNL     1      -3.354 -33.197  -7.526  0.00  0.00    +0.000 A 
ATOM     14  C   UNL     1      -4.524 -32.492  -7.257  0.00  0.00    +0.000 A 
ATOM     15  C   UNL     1      -2.563 -32.887  -8.766  0.00  0.00    +0.000 C 
ATOM     16  N   UNL     1      -1.268 -37.916  -3.336  0.00  0.00    +0.000 N 
ATOM     17  H   UNL     1      -0.383 -37.940  -3.835  0.00  0.00    +0.000 HD
ATOM     18  H   UNL     1      -1.249 -38.306  -2.397  0.00  0.00    +0.000 HD
ENDROOT
TORSDOF 0
ENDMDL
MODEL 8
REMARK VINA RESULT:      -4.3      2.115      5.644
REMARK  Name = MeIQx.pdbqt.pdb
REMARK  0 active torsions:
REMARK  status: ('A' for Active; 'I' for Inactive)
REMARK                            x       y       z     vdW  Elec       q    Type
REMARK                         _______ _______ _______ _____ _____    ______ ____
ROOT
ATOM      1  N   UNL     1      -7.576 -35.685  -4.778  0.00  0.00    +0.000 N 
ATOM      2  N   UNL     1      -7.743 -36.230  -6.917  0.00  0.00    +0.000 NA
ATOM      3  N   UNL     1      -6.299 -34.801  -9.038  0.00  0.00    +0.000 NA
ATOM      4  N   UNL     1      -4.634 -32.637  -8.236  0.00  0.00    +0.000 NA
ATOM      5  C   UNL     1      -6.763 -34.794  -5.427  0.00  0.00    +0.000 A 
ATOM      6  C   UNL     1      -6.883 -35.153  -6.769  0.00  0.00    +0.000 A 
ATOM      7  C   UNL     1      -6.156 -34.419  -7.740  0.00  0.00    +0.000 A 
ATOM      8  C   UNL     1      -5.331 -33.344  -7.327  0.00  0.00    +0.000 A 
ATOM      9  C   UNL     1      -8.155 -36.534  -5.707  0.00  0.00    +0.000 A 
ATOM     10  C   UNL     1      -5.956 -33.741  -4.989  0.00  0.00    +0.000 A 
ATOM     11  C   UNL     1      -5.256 -33.039  -5.975  0.00  0.00    +0.000 A 
ATOM     12  C   UNL     1      -7.758 -35.747  -3.356  0.00  0.00    +0.000 C 
ATOM     13  C   UNL     1      -5.592 -34.080  -9.932  0.00  0.00    +0.000 A 
ATOM     14  C   UNL     1      -4.780 -33.022  -9.536  0.00  0.00    +0.000 A 
ATOM     15  C   UNL     1      -5.693 -34.441 -11.387  0.00  0.00    +0.000 C 
ATOM     16  N   UNL     1      -9.016 -37.529  -5.398  0.00  0.00    +0.000 N 
ATOM     17  H   UNL     1      -9.229 -38.220  -6.112  0.00  0.00    +0.000 HD
ATOM     18  H   UNL     1      -9.121 -37.849  -4.438  0.00  0.00    +0.000 HD
ENDROOT
TORSDOF 0
ENDMDL
MODEL 9
REMARK VINA RESULT:      -4.3      2.239      6.373
REMARK  Name = MeIQx.pdbqt.pdb
REMARK  0 active torsions:
REMARK  status: ('A' for Active; 'I' for Inactive)
REMARK                            x       y       z     vdW  Elec       q    Type
REMARK                         _______ _______ _______ _____ _____    ______ ____
ROOT
ATOM      1  N   UNL     1      -5.883 -33.725  -6.643  0.00  0.00    +0.000 N 
ATOM      2  N   UNL     1      -5.987 -35.122  -8.358  0.00  0.00    +0.000 NA
ATOM      3  N   UNL     1      -4.040 -35.088 -10.555  0.00  0.00    +0.000 NA
ATOM      4  N   UNL     1      -1.959 -33.152 -10.409  0.00  0.00    +0.000 NA
ATOM      5  C   UNL     1      -4.815 -33.388  -7.431  0.00  0.00    +0.000 A 
ATOM      6  C   UNL     1      -4.899 -34.276  -8.503  0.00  0.00    +0.000 A 
ATOM      7  C   UNL     1      -3.923 -34.203  -9.529  0.00  0.00    +0.000 A 
ATOM      8  C   UNL     1      -2.893 -33.235  -9.443  0.00  0.00    +0.000 A 
ATOM      9  C   UNL     1      -6.572 -34.772  -7.234  0.00  0.00    +0.000 A 
ATOM     10  C   UNL     1      -3.809 -32.424  -7.318  0.00  0.00    +0.000 A 
ATOM     11  C   UNL     1      -2.866 -32.381  -8.349  0.00  0.00    +0.000 A 
ATOM     12  C   UNL     1      -6.203 -33.112  -5.386  0.00  0.00    +0.000 C 
ATOM     13  C   UNL     1      -3.095 -34.988 -11.512  0.00  0.00    +0.000 A 
ATOM     14  C   UNL     1      -2.079 -34.040 -11.437  0.00  0.00    +0.000 A 
ATOM     15  C   UNL     1      -3.151 -35.932 -12.679  0.00  0.00    +0.000 C 
ATOM     16  N   UNL     1      -7.683 -35.342  -6.716  0.00  0.00    +0.000 N 
ATOM     17  H   UNL     1      -7.998 -36.223  -7.110  0.00  0.00    +0.000 HD
ATOM     18  H   UNL     1      -7.953 -35.175  -5.749  0.00  0.00    +0.000 HD
ENDROOT
TORSDOF 0
ENDMDL
