MODEL 1
REMARK VINA RESULT:      -6.1      0.000      0.000
REMARK  Name = Methotrexate.pdbqt.pdb
REMARK  9 active torsions:
REMARK  status: ('A' for Active; 'I' for Inactive)
REMARK    1  A    between atoms: C_1  and  N_22
REMARK    2  A    between atoms: C_2  and  C_9
REMARK    3  A    between atoms: CA_11  and  C_13
REMARK    4  A    between atoms: CA_11  and  CB_16
REMARK    5  A    between atoms: C_13  and  O_14
REMARK    6  A    between atoms: CG_17  and  CD_19
REMARK    7  A    between atoms: CD_19  and  OE1_20
REMARK    8  A    between atoms: N_22  and  C_24
REMARK    9  A    between atoms: C_24  and  C_31
REMARK                            x       y       z     vdW  Elec       q    Type
REMARK                         _______ _______ _______ _____ _____    ______ ____
ROOT
ATOM      1  C   UNL     1      -1.680 -37.490  -4.096  0.00  0.00    +0.000 A 
ATOM      2  C   UNL     1      -2.859 -36.188  -6.312  0.00  0.00    +0.000 A 
ATOM      3  C   UNL     1      -1.875 -38.155  -5.314  0.00  0.00    +0.000 A 
ATOM      4  C   UNL     1      -2.101 -36.155  -4.018  0.00  0.00    +0.000 A 
ATOM      5  C   UNL     1      -2.454 -37.517  -6.412  0.00  0.00    +0.000 A 
ATOM      6  C   UNL     1      -2.681 -35.508  -5.110  0.00  0.00    +0.000 A 
ENDROOT
BRANCH   2   9
ATOM      7  O   UNL     1      -4.217 -36.088  -8.206  0.00  0.00    +0.000 OA
ATOM      8  N   UNL     1      -3.172 -34.123  -7.562  0.00  0.00    +0.000 N 
ATOM      9  C   ACE A   0      -3.481 -35.465  -7.450  0.00  0.00    +0.000 C 
ATOM     10  H   UNL     1      -2.549 -33.693  -6.884  0.00  0.00    +0.000 HD
ATOM     11  CA  UNL     1      -3.621 -33.243  -8.531  0.00  0.00    +0.000 C 
BRANCH  11  13
ATOM     12  OXT UNL     1      -3.638 -31.009  -7.686  0.00  0.00    +0.000 OA
ATOM     13  C   UNL     1      -3.128 -31.849  -8.412  0.00  0.00    +0.000 C 
BRANCH  13  14
ATOM     14  O   UNL     1      -2.060 -31.575  -9.176  0.00  0.00    +0.000 OA
ATOM     15  H   UNL     1      -2.068 -32.258  -9.878  0.00  0.00    +0.000 HD
ENDBRANCH  13  14
ENDBRANCH  11  13
BRANCH  11  16
ATOM     16  CB  UNL     1      -4.494 -33.645  -9.576  0.00  0.00    +0.000 C 
ATOM     17  CG  UNL     1      -5.442 -34.066 -10.704  0.00  0.00    +0.000 C 
BRANCH  17  19
ATOM     18  OE2 UNL     1      -7.104 -33.666 -12.299  0.00  0.00    +0.000 OA
ATOM     19  CD  UNL     1      -6.336 -34.443 -11.757  0.00  0.00    +0.000 C 
BRANCH  19  20
ATOM     20  OE1 UNL     1      -6.271 -35.744 -12.093  0.00  0.00    +0.000 OA
ATOM     21  HE1 UNL     1      -6.438 -35.737 -13.057  0.00  0.00    +0.000 HD
ENDBRANCH  19  20
ENDBRANCH  17  19
ENDBRANCH  11  16
ENDBRANCH   2   9
BRANCH   1  22
ATOM     22  N   UNL     1      -1.110 -38.159  -2.986  0.00  0.00    +0.000 N 
ATOM     23  C   UNL     1      -0.160 -39.243  -3.164  0.00  0.00    +0.000 C 
BRANCH  22  24
ATOM     24  C   UNL     1      -1.747 -38.097  -1.687  0.00  0.00    +0.000 C 
BRANCH  24  31
ATOM     25  N   UNL     1      -3.429 -37.280  -0.322  0.00  0.00    +0.000 NA
ATOM     26  N   UNL     1      -2.402 -38.686   2.102  0.00  0.00    +0.000 NA
ATOM     27  N   UNL     1      -4.117 -37.753   3.344  0.00  0.00    +0.000 NA
ATOM     28  N   UNL     1      -5.784 -36.381   2.368  0.00  0.00    +0.000 NA
ATOM     29  N   UNL     1      -5.900 -35.817   0.150  0.00  0.00    +0.000 N 
ATOM     30  N   UNL     1      -5.773 -36.865   4.619  0.00  0.00    +0.000 N 
ATOM     31  C   UNL     1      -2.370 -38.035  -0.413  0.00  0.00    +0.000 C 
ATOM     32  C   UNL     1      -2.000 -38.646   0.823  0.00  0.00    +0.000 C 
ATOM     33  C   UNL     1      -4.029 -37.230   0.953  0.00  0.00    +0.000 C 
ATOM     34  C   UNL     1      -3.469 -37.935   2.166  0.00  0.00    +0.000 C 
ATOM     35  C   UNL     1      -5.269 -36.464   1.181  0.00  0.00    +0.000 C 
ATOM     36  C   UNL     1      -5.177 -37.014   3.413  0.00  0.00    +0.000 C 
ATOM     37  H   UNL     1      -6.527 -35.077   0.444  0.00  0.00    +0.000 HD
ATOM     38  H   UNL     1      -5.325 -35.603  -0.658  0.00  0.00    +0.000 HD
ATOM     39  H   UNL     1      -6.764 -36.672   4.550  0.00  0.00    +0.000 HD
ATOM     40  H   UNL     1      -5.530 -37.602   5.268  0.00  0.00    +0.000 HD
ENDBRANCH  24  31
ENDBRANCH  22  24
ENDBRANCH   1  22
TORSDOF 9
ENDMDL
MODEL 2
REMARK VINA RESULT:      -6.0     20.214     25.006
REMARK  Name = Methotrexate.pdbqt.pdb
REMARK  9 active torsions:
REMARK  status: ('A' for Active; 'I' for Inactive)
REMARK    1  A    between atoms: C_1  and  N_22
REMARK    2  A    between atoms: C_2  and  C_9
REMARK    3  A    between atoms: CA_11  and  C_13
REMARK    4  A    between atoms: CA_11  and  CB_16
REMARK    5  A    between atoms: C_13  and  O_14
REMARK    6  A    between atoms: CG_17  and  CD_19
REMARK    7  A    between atoms: CD_19  and  OE1_20
REMARK    8  A    between atoms: N_22  and  C_24
REMARK    9  A    between atoms: C_24  and  C_31
REMARK                            x       y       z     vdW  Elec       q    Type
REMARK                         _______ _______ _______ _____ _____    ______ ____
ROOT
ATOM      1  C   UNL     1      -4.019 -13.311 -14.696  0.00  0.00    +0.000 A 
ATOM      2  C   UNL     1      -2.465 -15.674 -14.665  0.00  0.00    +0.000 A 
ATOM      3  C   UNL     1      -2.686 -13.314 -15.132  0.00  0.00    +0.000 A 
ATOM      4  C   UNL     1      -4.547 -14.525 -14.237  0.00  0.00    +0.000 A 
ATOM      5  C   UNL     1      -1.916 -14.478 -15.121  0.00  0.00    +0.000 A 
ATOM      6  C   UNL     1      -3.786 -15.694 -14.222  0.00  0.00    +0.000 A 
ENDROOT
BRANCH   2   9
ATOM      7  O   UNL     1      -1.014 -17.183 -13.638  0.00  0.00    +0.000 OA
ATOM      8  N   UNL     1      -1.790 -17.747 -15.747  0.00  0.00    +0.000 N 
ATOM      9  C   ACE A   0      -1.687 -16.937 -14.632  0.00  0.00    +0.000 C 
ATOM     10  H   UNL     1      -2.375 -17.456 -16.526  0.00  0.00    +0.000 HD
ATOM     11  CA  UNL     1      -1.163 -18.963 -15.955  0.00  0.00    +0.000 C 
BRANCH  11  13
ATOM     12  OXT UNL     1      -0.663 -20.350 -17.834  0.00  0.00    +0.000 OA
ATOM     13  C   UNL     1      -1.453 -19.623 -17.252  0.00  0.00    +0.000 C 
BRANCH  13  14
ATOM     14  O   UNL     1      -2.670 -19.354 -17.747  0.00  0.00    +0.000 OA
ATOM     15  H   UNL     1      -3.013 -18.621 -17.195  0.00  0.00    +0.000 HD
ENDBRANCH  13  14
ENDBRANCH  11  13
BRANCH  11  16
ATOM     16  CB  UNL     1      -0.296 -19.544 -14.993  0.00  0.00    +0.000 C 
ATOM     17  CG  UNL     1       0.651 -20.172 -13.964  0.00  0.00    +0.000 C 
BRANCH  17  19
ATOM     18  OE2 UNL     1       2.762 -20.705 -13.112  0.00  0.00    +0.000 OA
ATOM     19  CD  UNL     1       1.548 -20.762 -13.017  0.00  0.00    +0.000 C 
BRANCH  19  20
ATOM     20  OE1 UNL     1       0.935 -21.409 -12.010  0.00  0.00    +0.000 OA
ATOM     21  HE1 UNL     1       1.678 -21.737 -11.465  0.00  0.00    +0.000 HD
ENDBRANCH  19  20
ENDBRANCH  17  19
ENDBRANCH  11  16
ENDBRANCH   2   9
BRANCH   1  22
ATOM     22  N   UNL     1      -4.780 -12.117 -14.695  0.00  0.00    +0.000 N 
ATOM     23  C   UNL     1      -5.189 -11.481 -15.934  0.00  0.00    +0.000 C 
BRANCH  22  24
ATOM     24  C   UNL     1      -4.811 -11.270 -13.522  0.00  0.00    +0.000 C 
BRANCH  24  31
ATOM     25  N   UNL     1      -4.053 -10.777 -11.390  0.00  0.00    +0.000 NA
ATOM     26  N   UNL     1      -5.844  -8.409 -11.096  0.00  0.00    +0.000 NA
ATOM     27  N   UNL     1      -5.018  -8.075  -8.961  0.00  0.00    +0.000 NA
ATOM     28  N   UNL     1      -3.305  -9.428  -8.041  0.00  0.00    +0.000 NA
ATOM     29  N   UNL     1      -2.290 -11.183  -9.110  0.00  0.00    +0.000 N 
ATOM     30  N   UNL     1      -4.252  -7.696  -6.856  0.00  0.00    +0.000 N 
ATOM     31  C   UNL     1      -4.840 -10.437 -12.372  0.00  0.00    +0.000 C 
ATOM     32  C   UNL     1      -5.632  -9.283 -12.091  0.00  0.00    +0.000 C 
ATOM     33  C   UNL     1      -4.101  -9.939 -10.257  0.00  0.00    +0.000 C 
ATOM     34  C   UNL     1      -5.037  -8.761 -10.131  0.00  0.00    +0.000 C 
ATOM     35  C   UNL     1      -3.216 -10.173  -9.099  0.00  0.00    +0.000 C 
ATOM     36  C   UNL     1      -4.218  -8.416  -8.003  0.00  0.00    +0.000 C 
ATOM     37  H   UNL     1      -1.973 -11.467  -8.190  0.00  0.00    +0.000 HD
ATOM     38  H   UNL     1      -2.467 -11.941  -9.761  0.00  0.00    +0.000 HD
ATOM     39  H   UNL     1      -3.374  -7.709  -6.354  0.00  0.00    +0.000 HD
ATOM     40  H   UNL     1      -4.653  -6.776  -6.985  0.00  0.00    +0.000 HD
ENDBRANCH  24  31
ENDBRANCH  22  24
ENDBRANCH   1  22
TORSDOF 9
ENDMDL
MODEL 3
REMARK VINA RESULT:      -6.0      6.171     12.173
REMARK  Name = Methotrexate.pdbqt.pdb
REMARK  9 active torsions:
REMARK  status: ('A' for Active; 'I' for Inactive)
REMARK    1  A    between atoms: C_1  and  N_22
REMARK    2  A    between atoms: C_2  and  C_9
REMARK    3  A    between atoms: CA_11  and  C_13
REMARK    4  A    between atoms: CA_11  and  CB_16
REMARK    5  A    between atoms: C_13  and  O_14
REMARK    6  A    between atoms: CG_17  and  CD_19
REMARK    7  A    between atoms: CD_19  and  OE1_20
REMARK    8  A    between atoms: N_22  and  C_24
REMARK    9  A    between atoms: C_24  and  C_31
REMARK                            x       y       z     vdW  Elec       q    Type
REMARK                         _______ _______ _______ _____ _____    ______ ____
ROOT
ATOM      1  C   UNL     1      -1.279 -33.612 -10.371  0.00  0.00    +0.000 A 
ATOM      2  C   UNL     1      -2.911 -33.756  -8.066  0.00  0.00    +0.000 A 
ATOM      3  C   UNL     1      -1.514 -34.830  -9.718  0.00  0.00    +0.000 A 
ATOM      4  C   UNL     1      -1.879 -32.466  -9.829  0.00  0.00    +0.000 A 
ATOM      5  C   UNL     1      -2.320 -34.907  -8.582  0.00  0.00    +0.000 A 
ATOM      6  C   UNL     1      -2.687 -32.533  -8.694  0.00  0.00    +0.000 A 
ENDROOT
BRANCH   2   9
ATOM      7  O   UNL     1      -4.837 -33.177  -6.886  0.00  0.00    +0.000 OA
ATOM      8  N   UNL     1      -3.297 -34.513  -5.785  0.00  0.00    +0.000 N 
ATOM      9  C   ACE A   0      -3.774 -33.786  -6.859  0.00  0.00    +0.000 C 
ATOM     10  H   UNL     1      -2.400 -34.985  -5.858  0.00  0.00    +0.000 HD
ATOM     11  CA  UNL     1      -3.912 -34.687  -4.557  0.00  0.00    +0.000 C 
BRANCH  11  13
ATOM     12  OXT UNL     1      -2.993 -36.723  -3.711  0.00  0.00    +0.000 OA
ATOM     13  C   UNL     1      -3.171 -35.521  -3.580  0.00  0.00    +0.000 C 
BRANCH  13  14
ATOM     14  O   UNL     1      -2.704 -34.844  -2.520  0.00  0.00    +0.000 OA
ATOM     15  H   UNL     1      -3.211 -35.186  -1.755  0.00  0.00    +0.000 HD
ENDBRANCH  13  14
ENDBRANCH  11  13
BRANCH  11  16
ATOM     16  CB  UNL     1      -5.169 -34.103  -4.248  0.00  0.00    +0.000 C 
ATOM     17  CG  UNL     1      -6.520 -33.466  -3.904  0.00  0.00    +0.000 C 
BRANCH  17  19
ATOM     18  OE2 UNL     1      -8.672 -33.450  -2.993  0.00  0.00    +0.000 OA
ATOM     19  CD  UNL     1      -7.773 -32.861  -3.569  0.00  0.00    +0.000 C 
BRANCH  19  20
ATOM     20  OE1 UNL     1      -7.888 -31.580  -3.962  0.00  0.00    +0.000 OA
ATOM     21  HE1 UNL     1      -8.314 -31.650  -4.839  0.00  0.00    +0.000 HD
ENDBRANCH  19  20
ENDBRANCH  17  19
ENDBRANCH  11  16
ENDBRANCH   2   9
BRANCH   1  22
ATOM     22  N   UNL     1      -0.442 -33.548 -11.511  0.00  0.00    +0.000 N 
ATOM     23  C   UNL     1       0.017 -34.752 -12.180  0.00  0.00    +0.000 C 
BRANCH  22  24
ATOM     24  C   UNL     1       0.324 -32.351 -11.791  0.00  0.00    +0.000 C 
BRANCH  24  31
ATOM     25  N   UNL     1       2.254 -31.103 -11.512  0.00  0.00    +0.000 NA
ATOM     26  N   UNL     1       1.255 -28.837 -13.176  0.00  0.00    +0.000 NA
ATOM     27  N   UNL     1       3.225 -27.694 -12.767  0.00  0.00    +0.000 NA
ATOM     28  N   UNL     1       4.995 -28.637 -11.506  0.00  0.00    +0.000 NA
ATOM     29  N   UNL     1       4.978 -30.724 -10.558  0.00  0.00    +0.000 N 
ATOM     30  N   UNL     1       5.133 -26.520 -12.399  0.00  0.00    +0.000 N 
ATOM     31  C   UNL     1       1.077 -31.180 -12.066  0.00  0.00    +0.000 C 
ATOM     32  C   UNL     1       0.736 -30.026 -12.836  0.00  0.00    +0.000 C 
ATOM     33  C   UNL     1       2.982 -29.929 -11.795  0.00  0.00    +0.000 C 
ATOM     34  C   UNL     1       2.437 -28.790 -12.623  0.00  0.00    +0.000 C 
ATOM     35  C   UNL     1       4.354 -29.743 -11.284  0.00  0.00    +0.000 C 
ATOM     36  C   UNL     1       4.398 -27.644 -12.225  0.00  0.00    +0.000 C 
ATOM     37  H   UNL     1       5.751 -30.395  -9.991  0.00  0.00    +0.000 HD
ATOM     38  H   UNL     1       4.369 -31.400 -10.110  0.00  0.00    +0.000 HD
ATOM     39  H   UNL     1       6.130 -26.686 -12.349  0.00  0.00    +0.000 HD
ATOM     40  H   UNL     1       4.834 -25.978 -13.199  0.00  0.00    +0.000 HD
ENDBRANCH  24  31
ENDBRANCH  22  24
ENDBRANCH   1  22
TORSDOF 9
ENDMDL
MODEL 4
REMARK VINA RESULT:      -5.8      9.495     14.900
REMARK  Name = Methotrexate.pdbqt.pdb
REMARK  9 active torsions:
REMARK  status: ('A' for Active; 'I' for Inactive)
REMARK    1  A    between atoms: C_1  and  N_22
REMARK    2  A    between atoms: C_2  and  C_9
REMARK    3  A    between atoms: CA_11  and  C_13
REMARK    4  A    between atoms: CA_11  and  CB_16
REMARK    5  A    between atoms: C_13  and  O_14
REMARK    6  A    between atoms: CG_17  and  CD_19
REMARK    7  A    between atoms: CD_19  and  OE1_20
REMARK    8  A    between atoms: N_22  and  C_24
REMARK    9  A    between atoms: C_24  and  C_31
REMARK                            x       y       z     vdW  Elec       q    Type
REMARK                         _______ _______ _______ _____ _____    ______ ____
ROOT
ATOM      1  C   UNL     1      -8.980 -31.783   5.122  0.00  0.00    +0.000 A 
ATOM      2  C   UNL     1      -6.908 -31.674   7.044  0.00  0.00    +0.000 A 
ATOM      3  C   UNL     1      -8.894 -30.731   6.044  0.00  0.00    +0.000 A 
ATOM      4  C   UNL     1      -8.001 -32.784   5.197  0.00  0.00    +0.000 A 
ATOM      5  C   UNL     1      -7.872 -30.671   6.992  0.00  0.00    +0.000 A 
ATOM      6  C   UNL     1      -6.975 -32.734   6.142  0.00  0.00    +0.000 A 
ENDROOT
BRANCH   2   9
ATOM      7  O   UNL     1      -4.948 -32.532   7.973  0.00  0.00    +0.000 OA
ATOM      8  N   UNL     1      -5.831 -30.632   8.963  0.00  0.00    +0.000 N 
ATOM      9  C   ACE A   0      -5.803 -31.657   8.035  0.00  0.00    +0.000 C 
ATOM     10  H   UNL     1      -6.585 -29.951   8.934  0.00  0.00    +0.000 HD
ATOM     11  CA  UNL     1      -4.923 -30.405   9.981  0.00  0.00    +0.000 C 
BRANCH  11  13
ATOM     12  OXT UNL     1      -6.013 -29.222  11.747  0.00  0.00    +0.000 OA
ATOM     13  C   UNL     1      -5.197 -29.225  10.837  0.00  0.00    +0.000 C 
BRANCH  13  14
ATOM     14  O   UNL     1      -4.470 -28.140  10.529  0.00  0.00    +0.000 OA
ATOM     15  H   UNL     1      -4.145 -28.301   9.619  0.00  0.00    +0.000 HD
ENDBRANCH  13  14
ENDBRANCH  11  13
BRANCH  11  16
ATOM     16  CB  UNL     1      -3.801 -31.247  10.199  0.00  0.00    +0.000 C 
ATOM     17  CG  UNL     1      -2.588 -32.159  10.421  0.00  0.00    +0.000 C 
BRANCH  17  19
ATOM     18  OE2 UNL     1      -0.371 -32.620  11.000  0.00  0.00    +0.000 OA
ATOM     19  CD  UNL     1      -1.456 -33.015  10.609  0.00  0.00    +0.000 C 
BRANCH  19  20
ATOM     20  OE1 UNL     1      -1.685 -34.304  10.299  0.00  0.00    +0.000 OA
ATOM     21  HE1 UNL     1      -1.574 -34.326   9.328  0.00  0.00    +0.000 HD
ENDBRANCH  19  20
ENDBRANCH  17  19
ENDBRANCH  11  16
ENDBRANCH   2   9
BRANCH   1  22
ATOM     22  N   UNL     1     -10.034 -31.840   4.180  0.00  0.00    +0.000 N 
ATOM     23  C   UNL     1     -11.371 -32.253   4.566  0.00  0.00    +0.000 C 
BRANCH  22  24
ATOM     24  C   UNL     1      -9.747 -31.912   2.763  0.00  0.00    +0.000 C 
BRANCH  24  31
ATOM     25  N   UNL     1      -8.528 -32.817   1.014  0.00  0.00    +0.000 NA
ATOM     26  N   UNL     1      -9.871 -31.126  -1.046  0.00  0.00    +0.000 NA
ATOM     27  N   UNL     1      -8.544 -32.093  -2.676  0.00  0.00    +0.000 NA
ATOM     28  N   UNL     1      -6.991 -33.815  -2.185  0.00  0.00    +0.000 NA
ATOM     29  N   UNL     1      -6.615 -34.703  -0.107  0.00  0.00    +0.000 N 
ATOM     30  N   UNL     1      -7.268 -33.001  -4.321  0.00  0.00    +0.000 N 
ATOM     31  C   UNL     1      -9.462 -31.982   1.374  0.00  0.00    +0.000 C 
ATOM     32  C   UNL     1     -10.017 -31.247   0.282  0.00  0.00    +0.000 C 
ATOM     33  C   UNL     1      -8.259 -32.867  -0.369  0.00  0.00    +0.000 C 
ATOM     34  C   UNL     1      -8.941 -31.980  -1.383  0.00  0.00    +0.000 C 
ATOM     35  C   UNL     1      -7.269 -33.813  -0.919  0.00  0.00    +0.000 C 
ATOM     36  C   UNL     1      -7.627 -32.940  -3.016  0.00  0.00    +0.000 C 
ATOM     37  H   UNL     1      -5.754 -35.067  -0.496  0.00  0.00    +0.000 HD
ATOM     38  H   UNL     1      -6.579 -34.462   0.878  0.00  0.00    +0.000 HD
ATOM     39  H   UNL     1      -6.910 -33.907  -4.592  0.00  0.00    +0.000 HD
ATOM     40  H   UNL     1      -7.975 -32.624  -4.938  0.00  0.00    +0.000 HD
ENDBRANCH  24  31
ENDBRANCH  22  24
ENDBRANCH   1  22
TORSDOF 9
ENDMDL
MODEL 5
REMARK VINA RESULT:      -5.8      8.434     11.501
REMARK  Name = Methotrexate.pdbqt.pdb
REMARK  9 active torsions:
REMARK  status: ('A' for Active; 'I' for Inactive)
REMARK    1  A    between atoms: C_1  and  N_22
REMARK    2  A    between atoms: C_2  and  C_9
REMARK    3  A    between atoms: CA_11  and  C_13
REMARK    4  A    between atoms: CA_11  and  CB_16
REMARK    5  A    between atoms: C_13  and  O_14
REMARK    6  A    between atoms: CG_17  and  CD_19
REMARK    7  A    between atoms: CD_19  and  OE1_20
REMARK    8  A    between atoms: N_22  and  C_24
REMARK    9  A    between atoms: C_24  and  C_31
REMARK                            x       y       z     vdW  Elec       q    Type
REMARK                         _______ _______ _______ _____ _____    ______ ____
ROOT
ATOM      1  C   UNL     1     -10.751 -37.353  -6.729  0.00  0.00    +0.000 A 
ATOM      2  C   UNL     1     -13.390 -37.004  -7.686  0.00  0.00    +0.000 A 
ATOM      3  C   UNL     1     -11.383 -38.335  -7.506  0.00  0.00    +0.000 A 
ATOM      4  C   UNL     1     -11.485 -36.194  -6.440  0.00  0.00    +0.000 A 
ATOM      5  C   UNL     1     -12.683 -38.166  -7.982  0.00  0.00    +0.000 A 
ATOM      6  C   UNL     1     -12.786 -36.016  -6.912  0.00  0.00    +0.000 A 
ENDROOT
BRANCH   2   9
ATOM      7  O   UNL     1     -15.019 -36.958  -9.355  0.00  0.00    +0.000 OA
ATOM      8  N   UNL     1     -15.694 -36.376  -7.216  0.00  0.00    +0.000 N 
ATOM      9  C   ACE A   0     -14.776 -36.778  -8.168  0.00  0.00    +0.000 C 
ATOM     10  H   UNL     1     -15.396 -36.253  -6.252  0.00  0.00    +0.000 HD
ATOM     11  CA  UNL     1     -17.036 -36.102  -7.417  0.00  0.00    +0.000 C 
BRANCH  11  13
ATOM     12  OXT UNL     1     -17.269 -35.386  -5.150  0.00  0.00    +0.000 OA
ATOM     13  C   UNL     1     -17.794 -35.687  -6.211  0.00  0.00    +0.000 C 
BRANCH  13  14
ATOM     14  O   UNL     1     -19.125 -35.668  -6.378  0.00  0.00    +0.000 OA
ATOM     15  H   UNL     1     -19.271 -35.967  -7.299  0.00  0.00    +0.000 HD
ENDBRANCH  13  14
ENDBRANCH  11  13
BRANCH  11  16
ATOM     16  CB  UNL     1     -17.649 -36.206  -8.693  0.00  0.00    +0.000 C 
ATOM     17  CG  UNL     1     -18.324 -36.314 -10.065  0.00  0.00    +0.000 C 
BRANCH  17  19
ATOM     18  OE2 UNL     1     -19.944 -37.116 -11.548  0.00  0.00    +0.000 OA
ATOM     19  CD  UNL     1     -18.970 -36.412 -11.339  0.00  0.00    +0.000 C 
BRANCH  19  20
ATOM     20  OE1 UNL     1     -18.398 -35.669 -12.303  0.00  0.00    +0.000 OA
ATOM     21  HE1 UNL     1     -18.731 -34.768 -12.123  0.00  0.00    +0.000 HD
ENDBRANCH  19  20
ENDBRANCH  17  19
ENDBRANCH  11  16
ENDBRANCH   2   9
BRANCH   1  22
ATOM     22  N   UNL     1      -9.439 -37.548  -6.237  0.00  0.00    +0.000 N 
ATOM     23  C   UNL     1      -9.138 -38.602  -5.285  0.00  0.00    +0.000 C 
BRANCH  22  24
ATOM     24  C   UNL     1      -8.462 -36.482  -6.313  0.00  0.00    +0.000 C 
BRANCH  24  31
ATOM     25  N   UNL     1      -7.038 -35.157  -7.569  0.00  0.00    +0.000 NA
ATOM     26  N   UNL     1      -6.009 -33.680  -5.189  0.00  0.00    +0.000 NA
ATOM     27  N   UNL     1      -4.607 -32.467  -6.574  0.00  0.00    +0.000 NA
ATOM     28  N   UNL     1      -4.609 -32.739  -8.927  0.00  0.00    +0.000 NA
ATOM     29  N   UNL     1      -5.946 -34.193 -10.089  0.00  0.00    +0.000 N 
ATOM     30  N   UNL     1      -3.204 -31.246  -7.878  0.00  0.00    +0.000 N 
ATOM     31  C   UNL     1      -7.504 -35.437  -6.384  0.00  0.00    +0.000 C 
ATOM     32  C   UNL     1      -6.924 -34.647  -5.345  0.00  0.00    +0.000 C 
ATOM     33  C   UNL     1      -6.085 -34.119  -7.615  0.00  0.00    +0.000 C 
ATOM     34  C   UNL     1      -5.567 -33.407  -6.388  0.00  0.00    +0.000 C 
ATOM     35  C   UNL     1      -5.523 -33.658  -8.900  0.00  0.00    +0.000 C 
ATOM     36  C   UNL     1      -4.169 -32.189  -7.759  0.00  0.00    +0.000 C 
ATOM     37  H   UNL     1      -5.299 -34.062 -10.858  0.00  0.00    +0.000 HD
ATOM     38  H   UNL     1      -6.376 -35.111 -10.035  0.00  0.00    +0.000 HD
ATOM     39  H   UNL     1      -3.216 -30.779  -8.775  0.00  0.00    +0.000 HD
ATOM     40  H   UNL     1      -3.163 -30.628  -7.079  0.00  0.00    +0.000 HD
ENDBRANCH  24  31
ENDBRANCH  22  24
ENDBRANCH   1  22
TORSDOF 9
ENDMDL
MODEL 6
REMARK VINA RESULT:      -5.8     20.754     25.593
REMARK  Name = Methotrexate.pdbqt.pdb
REMARK  9 active torsions:
REMARK  status: ('A' for Active; 'I' for Inactive)
REMARK    1  A    between atoms: C_1  and  N_22
REMARK    2  A    between atoms: C_2  and  C_9
REMARK    3  A    between atoms: CA_11  and  C_13
REMARK    4  A    between atoms: CA_11  and  CB_16
REMARK    5  A    between atoms: C_13  and  O_14
REMARK    6  A    between atoms: CG_17  and  CD_19
REMARK    7  A    between atoms: CD_19  and  OE1_20
REMARK    8  A    between atoms: N_22  and  C_24
REMARK    9  A    between atoms: C_24  and  C_31
REMARK                            x       y       z     vdW  Elec       q    Type
REMARK                         _______ _______ _______ _____ _____    ______ ____
ROOT
ATOM      1  C   UNL     1      -3.690 -13.434 -15.274  0.00  0.00    +0.000 A 
ATOM      2  C   UNL     1      -4.296 -11.479 -13.322  0.00  0.00    +0.000 A 
ATOM      3  C   UNL     1      -2.863 -12.320 -15.075  0.00  0.00    +0.000 A 
ATOM      4  C   UNL     1      -4.835 -13.535 -14.470  0.00  0.00    +0.000 A 
ATOM      5  C   UNL     1      -3.156 -11.354 -14.112  0.00  0.00    +0.000 A 
ATOM      6  C   UNL     1      -5.137 -12.574 -13.504  0.00  0.00    +0.000 A 
ENDROOT
BRANCH   2   9
ATOM      7  O   UNL     1      -5.456  -9.599 -12.574  0.00  0.00    +0.000 OA
ATOM      8  N   UNL     1      -4.034 -10.623 -11.058  0.00  0.00    +0.000 N 
ATOM      9  C   ACE A   0      -4.652 -10.477 -12.286  0.00  0.00    +0.000 C 
ATOM     10  H   UNL     1      -3.378 -11.386 -10.915  0.00  0.00    +0.000 HD
ATOM     11  CA  UNL     1      -4.198  -9.821  -9.943  0.00  0.00    +0.000 C 
BRANCH  11  13
ATOM     12  OXT UNL     1      -3.531  -9.685  -7.653  0.00  0.00    +0.000 OA
ATOM     13  C   UNL     1      -3.405 -10.209  -8.750  0.00  0.00    +0.000 C 
BRANCH  13  14
ATOM     14  O   UNL     1      -2.524 -11.196  -8.971  0.00  0.00    +0.000 OA
ATOM     15  H   UNL     1      -3.069 -11.988  -9.156  0.00  0.00    +0.000 HD
ENDBRANCH  13  14
ENDBRANCH  11  13
BRANCH  11  16
ATOM     16  CB  UNL     1      -5.063  -8.696  -9.937  0.00  0.00    +0.000 C 
ATOM     17  CG  UNL     1      -5.988  -7.473  -9.935  0.00  0.00    +0.000 C 
BRANCH  17  19
ATOM     18  OE2 UNL     1      -7.500  -5.973 -10.899  0.00  0.00    +0.000 OA
ATOM     19  CD  UNL     1      -6.836  -6.320  -9.937  0.00  0.00    +0.000 C 
BRANCH  19  20
ATOM     20  OE1 UNL     1      -6.828  -5.630  -8.782  0.00  0.00    +0.000 OA
ATOM     21  HE1 UNL     1      -6.808  -6.331  -8.100  0.00  0.00    +0.000 HD
ENDBRANCH  19  20
ENDBRANCH  17  19
ENDBRANCH  11  16
ENDBRANCH   2   9
BRANCH   1  22
ATOM     22  N   UNL     1      -3.390 -14.394 -16.269  0.00  0.00    +0.000 N 
ATOM     23  C   UNL     1      -4.106 -14.424 -17.531  0.00  0.00    +0.000 C 
BRANCH  22  24
ATOM     24  C   UNL     1      -2.691 -15.615 -15.922  0.00  0.00    +0.000 C 
BRANCH  24  31
ATOM     25  N   UNL     1      -1.203 -16.745 -14.555  0.00  0.00    +0.000 NA
ATOM     26  N   UNL     1      -1.440 -19.294 -16.088  0.00  0.00    +0.000 NA
ATOM     27  N   UNL     1       0.098 -20.271 -14.661  0.00  0.00    +0.000 NA
ATOM     28  N   UNL     1       1.017 -19.115 -12.808  0.00  0.00    +0.000 NA
ATOM     29  N   UNL     1       0.522 -16.956 -12.220  0.00  0.00    +0.000 N 
ATOM     30  N   UNL     1       1.606 -21.286 -13.299  0.00  0.00    +0.000 N 
ATOM     31  C   UNL     1      -2.005 -16.809 -15.580  0.00  0.00    +0.000 C 
ATOM     32  C   UNL     1      -2.019 -18.091 -16.210  0.00  0.00    +0.000 C 
ATOM     33  C   UNL     1      -0.529 -17.942 -14.237  0.00  0.00    +0.000 C 
ATOM     34  C   UNL     1      -0.653 -19.209 -15.048  0.00  0.00    +0.000 C 
ATOM     35  C   UNL     1       0.361 -18.025 -13.062  0.00  0.00    +0.000 C 
ATOM     36  C   UNL     1       0.875 -20.194 -13.630  0.00  0.00    +0.000 C 
ATOM     37  H   UNL     1       1.365 -16.991 -11.659  0.00  0.00    +0.000 HD
ATOM     38  H   UNL     1       0.296 -16.047 -12.608  0.00  0.00    +0.000 HD
ATOM     39  H   UNL     1       1.831 -21.328 -12.314  0.00  0.00    +0.000 HD
ATOM     40  H   UNL     1       1.225 -22.141 -13.683  0.00  0.00    +0.000 HD
ENDBRANCH  24  31
ENDBRANCH  22  24
ENDBRANCH   1  22
TORSDOF 9
ENDMDL
MODEL 7
REMARK VINA RESULT:      -5.7      7.166     14.546
REMARK  Name = Methotrexate.pdbqt.pdb
REMARK  9 active torsions:
REMARK  status: ('A' for Active; 'I' for Inactive)
REMARK    1  A    between atoms: C_1  and  N_22
REMARK    2  A    between atoms: C_2  and  C_9
REMARK    3  A    between atoms: CA_11  and  C_13
REMARK    4  A    between atoms: CA_11  and  CB_16
REMARK    5  A    between atoms: C_13  and  O_14
REMARK    6  A    between atoms: CG_17  and  CD_19
REMARK    7  A    between atoms: CD_19  and  OE1_20
REMARK    8  A    between atoms: N_22  and  C_24
REMARK    9  A    between atoms: C_24  and  C_31
REMARK                            x       y       z     vdW  Elec       q    Type
REMARK                         _______ _______ _______ _____ _____    ______ ____
ROOT
ATOM      1  C   UNL     1      -7.337 -34.426 -13.777  0.00  0.00    +0.000 A 
ATOM      2  C   UNL     1      -5.786 -34.139 -11.429  0.00  0.00    +0.000 A 
ATOM      3  C   UNL     1      -7.798 -33.679 -12.683  0.00  0.00    +0.000 A 
ATOM      4  C   UNL     1      -6.078 -35.031 -13.655  0.00  0.00    +0.000 A 
ATOM      5  C   UNL     1      -7.036 -33.533 -11.524  0.00  0.00    +0.000 A 
ATOM      6  C   UNL     1      -5.308 -34.890 -12.500  0.00  0.00    +0.000 A 
ENDROOT
BRANCH   2   9
ATOM      7  O   UNL     1      -5.460 -34.173  -9.120  0.00  0.00    +0.000 OA
ATOM      8  N   UNL     1      -3.604 -33.724 -10.433  0.00  0.00    +0.000 N 
ATOM      9  C   ACE A   0      -4.938 -34.014 -10.217  0.00  0.00    +0.000 C 
ATOM     10  H   UNL     1      -3.263 -33.609 -11.383  0.00  0.00    +0.000 HD
ATOM     11  CA  UNL     1      -2.622 -33.557  -9.472  0.00  0.00    +0.000 C 
BRANCH  11  13
ATOM     12  OXT UNL     1      -0.464 -34.102 -10.338  0.00  0.00    +0.000 OA
ATOM     13  C   UNL     1      -1.265 -33.249  -9.987  0.00  0.00    +0.000 C 
BRANCH  13  14
ATOM     14  O   UNL     1      -0.979 -31.939 -10.036  0.00  0.00    +0.000 OA
ATOM     15  H   UNL     1      -1.101 -31.687 -10.975  0.00  0.00    +0.000 HD
ENDBRANCH  13  14
ENDBRANCH  11  13
BRANCH  11  16
ATOM     16  CB  UNL     1      -2.893 -33.668  -8.083  0.00  0.00    +0.000 C 
ATOM     17  CG  UNL     1      -3.175 -33.778  -6.580  0.00  0.00    +0.000 C 
BRANCH  17  19
ATOM     18  OE2 UNL     1      -4.465 -34.293  -4.700  0.00  0.00    +0.000 OA
ATOM     19  CD  UNL     1      -3.425 -33.869  -5.173  0.00  0.00    +0.000 C 
BRANCH  19  20
ATOM     20  OE1 UNL     1      -2.413 -33.424  -4.407  0.00  0.00    +0.000 OA
ATOM     21  HE1 UNL     1      -1.685 -33.291  -5.046  0.00  0.00    +0.000 HD
ENDBRANCH  19  20
ENDBRANCH  17  19
ENDBRANCH  11  16
ENDBRANCH   2   9
BRANCH   1  22
ATOM     22  N   UNL     1      -8.131 -34.581 -14.938  0.00  0.00    +0.000 N 
ATOM     23  C   UNL     1      -8.199 -35.849 -15.643  0.00  0.00    +0.000 C 
BRANCH  22  24
ATOM     24  C   UNL     1      -8.549 -33.423 -15.700  0.00  0.00    +0.000 C 
BRANCH  24  31
ATOM     25  N   UNL     1      -8.778 -31.126 -15.880  0.00  0.00    +0.000 NA
ATOM     26  N   UNL     1     -10.070 -31.276 -18.566  0.00  0.00    +0.000 NA
ATOM     27  N   UNL     1     -10.269 -28.971 -18.576  0.00  0.00    +0.000 NA
ATOM     28  N   UNL     1      -9.426 -27.621 -16.822  0.00  0.00    +0.000 NA
ATOM     29  N   UNL     1      -8.352 -28.400 -14.953  0.00  0.00    +0.000 N 
ATOM     30  N   UNL     1     -10.498 -26.712 -18.646  0.00  0.00    +0.000 N 
ATOM     31  C   UNL     1      -8.957 -32.287 -16.446  0.00  0.00    +0.000 C 
ATOM     32  C   UNL     1      -9.580 -32.202 -17.729  0.00  0.00    +0.000 C 
ATOM     33  C   UNL     1      -9.195 -30.012 -16.637  0.00  0.00    +0.000 C 
ATOM     34  C   UNL     1      -9.867 -30.124 -17.985  0.00  0.00    +0.000 C 
ATOM     35  C   UNL     1      -8.992 -28.637 -16.142  0.00  0.00    +0.000 C 
ATOM     36  C   UNL     1     -10.067 -27.827 -18.008  0.00  0.00    +0.000 C 
ATOM     37  H   UNL     1      -8.545 -27.491 -14.550  0.00  0.00    +0.000 HD
ATOM     38  H   UNL     1      -8.337 -29.172 -14.296  0.00  0.00    +0.000 HD
ATOM     39  H   UNL     1      -9.964 -25.888 -18.407  0.00  0.00    +0.000 HD
ATOM     40  H   UNL     1     -10.632 -26.858 -19.638  0.00  0.00    +0.000 HD
ENDBRANCH  24  31
ENDBRANCH  22  24
ENDBRANCH   1  22
TORSDOF 9
ENDMDL
MODEL 8
REMARK VINA RESULT:      -5.7     19.906     24.051
REMARK  Name = Methotrexate.pdbqt.pdb
REMARK  9 active torsions:
REMARK  status: ('A' for Active; 'I' for Inactive)
REMARK    1  A    between atoms: C_1  and  N_22
REMARK    2  A    between atoms: C_2  and  C_9
REMARK    3  A    between atoms: CA_11  and  C_13
REMARK    4  A    between atoms: CA_11  and  CB_16
REMARK    5  A    between atoms: C_13  and  O_14
REMARK    6  A    between atoms: CG_17  and  CD_19
REMARK    7  A    between atoms: CD_19  and  OE1_20
REMARK    8  A    between atoms: N_22  and  C_24
REMARK    9  A    between atoms: C_24  and  C_31
REMARK                            x       y       z     vdW  Elec       q    Type
REMARK                         _______ _______ _______ _____ _____    ______ ____
ROOT
ATOM      1  C   UNL     1      -3.807 -17.478 -15.604  0.00  0.00    +0.000 A 
ATOM      2  C   UNL     1      -1.405 -17.523 -14.113  0.00  0.00    +0.000 A 
ATOM      3  C   UNL     1      -2.695 -18.214 -16.034  0.00  0.00    +0.000 A 
ATOM      4  C   UNL     1      -3.677 -16.758 -14.408  0.00  0.00    +0.000 A 
ATOM      5  C   UNL     1      -1.508 -18.242 -15.301  0.00  0.00    +0.000 A 
ATOM      6  C   UNL     1      -2.495 -16.779 -13.667  0.00  0.00    +0.000 A 
ENDROOT
BRANCH   2   9
ATOM      7  O   UNL     1       0.177 -16.474 -12.757  0.00  0.00    +0.000 OA
ATOM      8  N   UNL     1       0.517 -18.719 -13.217  0.00  0.00    +0.000 N 
ATOM      9  C   ACE A   0      -0.164 -17.519 -13.298  0.00  0.00    +0.000 C 
ATOM     10  H   UNL     1       0.154 -19.535 -13.703  0.00  0.00    +0.000 HD
ATOM     11  CA  UNL     1       1.690 -18.966 -12.526  0.00  0.00    +0.000 C 
BRANCH  11  13
ATOM     12  OXT UNL     1       1.704 -21.223 -13.309  0.00  0.00    +0.000 OA
ATOM     13  C   UNL     1       2.205 -20.355 -12.610  0.00  0.00    +0.000 C 
BRANCH  13  14
ATOM     14  O   UNL     1       3.282 -20.590 -11.845  0.00  0.00    +0.000 OA
ATOM     15  H   UNL     1       3.851 -21.180 -12.381  0.00  0.00    +0.000 HD
ENDBRANCH  13  14
ENDBRANCH  11  13
BRANCH  11  16
ATOM     16  CB  UNL     1       2.363 -17.958 -11.788  0.00  0.00    +0.000 C 
ATOM     17  CG  UNL     1       3.086 -16.859 -11.000  0.00  0.00    +0.000 C 
BRANCH  17  19
ATOM     18  OE2 UNL     1       3.690 -14.641 -10.577  0.00  0.00    +0.000 OA
ATOM     19  CD  UNL     1       3.757 -15.821 -10.278  0.00  0.00    +0.000 C 
BRANCH  19  20
ATOM     20  OE1 UNL     1       4.493 -16.261  -9.241  0.00  0.00    +0.000 OA
ATOM     21  HE1 UNL     1       5.324 -16.556  -9.663  0.00  0.00    +0.000 HD
ENDBRANCH  19  20
ENDBRANCH  17  19
ENDBRANCH  11  16
ENDBRANCH   2   9
BRANCH   1  22
ATOM     22  N   UNL     1      -4.997 -17.444 -16.370  0.00  0.00    +0.000 N 
ATOM     23  C   UNL     1      -5.016 -17.878 -17.755  0.00  0.00    +0.000 C 
BRANCH  22  24
ATOM     24  C   UNL     1      -6.104 -16.601 -15.968  0.00  0.00    +0.000 C 
BRANCH  24  31
ATOM     25  N   UNL     1      -6.908 -14.533 -15.308  0.00  0.00    +0.000 NA
ATOM     26  N   UNL     1      -9.707 -15.515 -14.981  0.00  0.00    +0.000 NA
ATOM     27  N   UNL     1     -10.347 -13.400 -14.295  0.00  0.00    +0.000 NA
ATOM     28  N   UNL     1      -8.834 -11.579 -14.232  0.00  0.00    +0.000 NA
ATOM     29  N   UNL     1      -6.620 -11.679 -14.816  0.00  0.00    +0.000 N 
ATOM     30  N   UNL     1     -11.038 -11.348 -13.609  0.00  0.00    +0.000 N 
ATOM     31  C   UNL     1      -7.190 -15.777 -15.573  0.00  0.00    +0.000 C 
ATOM     32  C   UNL     1      -8.568 -16.101 -15.377  0.00  0.00    +0.000 C 
ATOM     33  C   UNL     1      -8.001 -13.734 -14.914  0.00  0.00    +0.000 C 
ATOM     34  C   UNL     1      -9.402 -14.269 -14.735  0.00  0.00    +0.000 C 
ATOM     35  C   UNL     1      -7.833 -12.293 -14.645  0.00  0.00    +0.000 C 
ATOM     36  C   UNL     1     -10.053 -12.164 -14.054  0.00  0.00    +0.000 C 
ATOM     37  H   UNL     1      -6.521 -10.805 -14.313  0.00  0.00    +0.000 HD
ATOM     38  H   UNL     1      -5.808 -12.286 -14.794  0.00  0.00    +0.000 HD
ATOM     39  H   UNL     1     -10.887 -10.377 -13.848  0.00  0.00    +0.000 HD
ATOM     40  H   UNL     1     -11.962 -11.698 -13.826  0.00  0.00    +0.000 HD
ENDBRANCH  24  31
ENDBRANCH  22  24
ENDBRANCH   1  22
TORSDOF 9
ENDMDL
MODEL 9
REMARK VINA RESULT:      -5.6      7.012     10.610
REMARK  Name = Methotrexate.pdbqt.pdb
REMARK  9 active torsions:
REMARK  status: ('A' for Active; 'I' for Inactive)
REMARK    1  A    between atoms: C_1  and  N_22
REMARK    2  A    between atoms: C_2  and  C_9
REMARK    3  A    between atoms: CA_11  and  C_13
REMARK    4  A    between atoms: CA_11  and  CB_16
REMARK    5  A    between atoms: C_13  and  O_14
REMARK    6  A    between atoms: CG_17  and  CD_19
REMARK    7  A    between atoms: CD_19  and  OE1_20
REMARK    8  A    between atoms: N_22  and  C_24
REMARK    9  A    between atoms: C_24  and  C_31
REMARK                            x       y       z     vdW  Elec       q    Type
REMARK                         _______ _______ _______ _____ _____    ______ ____
ROOT
ATOM      1  C   UNL     1      -7.291 -35.654  -4.739  0.00  0.00    +0.000 A 
ATOM      2  C   UNL     1     -10.108 -35.860  -4.883  0.00  0.00    +0.000 A 
ATOM      3  C   UNL     1      -7.926 -36.220  -5.853  0.00  0.00    +0.000 A 
ATOM      4  C   UNL     1      -8.110 -35.200  -3.695  0.00  0.00    +0.000 A 
ATOM      5  C   UNL     1      -9.316 -36.322  -5.930  0.00  0.00    +0.000 A 
ATOM      6  C   UNL     1      -9.501 -35.298  -3.762  0.00  0.00    +0.000 A 
ENDROOT
BRANCH   2   9
ATOM      7  O   UNL     1     -12.147 -36.024  -6.004  0.00  0.00    +0.000 OA
ATOM      8  N   UNL     1     -12.229 -35.937  -3.691  0.00  0.00    +0.000 N 
ATOM      9  C   ACE A   0     -11.590 -35.948  -4.916  0.00  0.00    +0.000 C 
ATOM     10  H   UNL     1     -11.679 -35.870  -2.838  0.00  0.00    +0.000 HD
ATOM     11  CA  UNL     1     -13.592 -36.004  -3.462  0.00  0.00    +0.000 C 
BRANCH  11  13
ATOM     12  OXT UNL     1     -14.356 -34.956  -1.456  0.00  0.00    +0.000 OA
ATOM     13  C   UNL     1     -14.007 -35.972  -2.037  0.00  0.00    +0.000 C 
BRANCH  13  14
ATOM     14  O   UNL     1     -13.969 -37.165  -1.426  0.00  0.00    +0.000 OA
ATOM     15  H   UNL     1     -13.641 -37.790  -2.105  0.00  0.00    +0.000 HD
ENDBRANCH  13  14
ENDBRANCH  11  13
BRANCH  11  16
ATOM     16  CB  UNL     1     -14.536 -36.094  -4.518  0.00  0.00    +0.000 C 
ATOM     17  CG  UNL     1     -15.565 -36.195  -5.650  0.00  0.00    +0.000 C 
BRANCH  17  19
ATOM     18  OE2 UNL     1     -17.004 -37.355  -7.082  0.00  0.00    +0.000 OA
ATOM     19  CD  UNL     1     -16.538 -36.296  -6.695  0.00  0.00    +0.000 C 
BRANCH  19  20
ATOM     20  OE1 UNL     1     -16.889 -35.115  -7.235  0.00  0.00    +0.000 OA
ATOM     21  HE1 UNL     1     -17.841 -35.227  -7.425  0.00  0.00    +0.000 HD
ENDBRANCH  19  20
ENDBRANCH  17  19
ENDBRANCH  11  16
ENDBRANCH   2   9
BRANCH   1  22
ATOM     22  N   UNL     1      -5.880 -35.576  -4.668  0.00  0.00    +0.000 N 
ATOM     23  C   UNL     1      -5.167 -35.887  -3.442  0.00  0.00    +0.000 C 
BRANCH  22  24
ATOM     24  C   UNL     1      -5.140 -34.794  -5.636  0.00  0.00    +0.000 C 
BRANCH  24  31
ATOM     25  N   UNL     1      -3.576 -34.678  -7.340  0.00  0.00    +0.000 NA
ATOM     26  N   UNL     1      -3.805 -31.715  -7.603  0.00  0.00    +0.000 NA
ATOM     27  N   UNL     1      -2.194 -31.758  -9.264  0.00  0.00    +0.000 NA
ATOM     28  N   UNL     1      -1.239 -33.780 -10.046  0.00  0.00    +0.000 NA
ATOM     29  N   UNL     1      -1.765 -35.875  -9.279  0.00  0.00    +0.000 N 
ATOM     30  N   UNL     1      -0.614 -31.734 -10.895  0.00  0.00    +0.000 N 
ATOM     31  C   UNL     1      -4.413 -34.026  -6.583  0.00  0.00    +0.000 C 
ATOM     32  C   UNL     1      -4.417 -32.618  -6.824  0.00  0.00    +0.000 C 
ATOM     33  C   UNL     1      -2.862 -33.895  -8.270  0.00  0.00    +0.000 C 
ATOM     34  C   UNL     1      -2.984 -32.392  -8.361  0.00  0.00    +0.000 C 
ATOM     35  C   UNL     1      -1.930 -34.515  -9.231  0.00  0.00    +0.000 C 
ATOM     36  C   UNL     1      -1.383 -32.425 -10.020  0.00  0.00    +0.000 C 
ATOM     37  H   UNL     1      -0.902 -36.175  -9.716  0.00  0.00    +0.000 HD
ATOM     38  H   UNL     1      -2.027 -36.384  -8.441  0.00  0.00    +0.000 HD
ATOM     39  H   UNL     1      -0.353 -32.277 -11.708  0.00  0.00    +0.000 HD
ATOM     40  H   UNL     1      -0.987 -30.816 -11.102  0.00  0.00    +0.000 HD
ENDBRANCH  24  31
ENDBRANCH  22  24
ENDBRANCH   1  22
TORSDOF 9
ENDMDL
