MODEL 1
REMARK VINA RESULT:      -5.7      0.000      0.000
REMARK  Name = 
REMARK  21 active torsions:
REMARK  status: ('A' for Active; 'I' for Inactive)
REMARK    1  A    between atoms: O_3  and  C_27
REMARK    2  A    between atoms: O_3  and  C_28
REMARK    3  A    between atoms: N_6  and  CA_9
REMARK    4  A    between atoms: N_7  and  CA_15
REMARK    5  A    between atoms: N_8  and  CA_12
REMARK    6  A    between atoms: CA_9  and  CB_10
REMARK    7  A    between atoms: CA_9  and  C_16
REMARK    8  A    between atoms: CB_10  and  CG_11
REMARK    9  A    between atoms: CG_11  and  CD1_20
REMARK   10  A    between atoms: CG_11  and  CD2_21
REMARK   11  A    between atoms: CA_12  and  CB_13
REMARK   12  A    between atoms: CA_12  and  C_18
REMARK   13  A    between atoms: CB_13  and  CG_14
REMARK   14  A    between atoms: CG_14  and  CD1_22
REMARK   15  A    between atoms: CG_14  and  CD2_23
REMARK   16  A    between atoms: CA_15  and  CB_17
REMARK   17  A    between atoms: CA_15  and  C_26
REMARK   18  A    between atoms: CB_17  and  CG_19
REMARK   19  A    between atoms: CG_19  and  CD1_24
REMARK   20  A    between atoms: CG_19  and  CD2_25
REMARK   21  A    between atoms: C_28  and  C_29
REMARK                            x       y       z     vdW  Elec       q    Type
REMARK                         _______ _______ _______ _____ _____    ______ ____
ROOT
ATOM      1  O   UNL     1      -4.298 -33.401  -5.302  0.00  0.00    +0.000 OA
ATOM      2  N   UNL     1      -6.560 -33.190  -5.506  0.00  0.00    +0.000 N 
ATOM      3  C   UNL     1      -5.276 -33.233  -6.023  0.00  0.00    +0.000 C 
ATOM      4  H   UNL     1      -7.272 -33.543  -6.142  0.00  0.00    +0.000 HD
ENDROOT
BRANCH   2   5
ATOM      5  CA  UNL     1      -6.778 -33.483  -4.089  0.00  0.00    +0.000 C 
BRANCH   5   8
ATOM      6  O   UNL     1      -8.760 -34.854  -4.266  0.00  0.00    +0.000 OA
ATOM      7  N   UNL     1      -6.905 -35.997  -3.815  0.00  0.00    +0.000 N 
ATOM      8  C   UNL     1      -7.541 -34.821  -4.070  0.00  0.00    +0.000 C 
ATOM      9  H   UNL     1      -7.549 -36.779  -3.872  0.00  0.00    +0.000 HD
BRANCH   7  10
ATOM     10  CA  UNL     1      -5.479 -36.316  -3.900  0.00  0.00    +0.000 C 
BRANCH  10  12
ATOM     11  O   UNL     1      -5.964 -37.151  -6.137  0.00  0.00    +0.000 OA
ATOM     12  C   UNL     1      -5.190 -37.092  -5.185  0.00  0.00    +0.000 C 
ENDBRANCH  10  12
BRANCH  10  13
ATOM     13  CB  UNL     1      -4.963 -37.011  -2.630  0.00  0.00    +0.000 C 
BRANCH  13  14
ATOM     14  CG  UNL     1      -3.476 -36.811  -2.264  0.00  0.00    +0.000 C 
ATOM     15  CD1 UNL     1      -2.593 -38.006  -2.619  0.00  0.00    +0.000 C 
ATOM     16  CD2 UNL     1      -2.943 -35.557  -2.967  0.00  0.00    +0.000 C 
ENDBRANCH  13  14
ENDBRANCH  10  13
ENDBRANCH   7  10
ENDBRANCH   5   8
BRANCH   5  17
ATOM     17  CB  UNL     1      -7.629 -32.376  -3.450  0.00  0.00    +0.000 C 
BRANCH  17  18
ATOM     18  CG  UNL     1      -7.993 -32.617  -1.972  0.00  0.00    +0.000 C 
ATOM     19  CD1 UNL     1      -6.937 -32.062  -1.015  0.00  0.00    +0.000 C 
ATOM     20  CD2 UNL     1      -9.347 -31.972  -1.662  0.00  0.00    +0.000 C 
ENDBRANCH  17  18
ENDBRANCH   5  17
ENDBRANCH   2   5
BRANCH   3  21
ATOM     21  CA  UNL     1      -5.198 -33.138  -7.567  0.00  0.00    +0.000 C 
BRANCH  21  23
ATOM     22  O   UNL     1      -3.660 -30.841  -8.141  0.00  0.00    +0.000 OA
ATOM     23  N   UNL     1      -3.792 -33.126  -7.993  0.00  0.00    +0.000 N 
ATOM     24  C   ACE A   0      -3.159 -31.946  -8.279  0.00  0.00    +0.000 C 
ATOM     25  H   UNL     1      -3.438 -33.948  -8.462  0.00  0.00    +0.000 HD
BRANCH  24  26
ATOM     26  O   UNL     1      -1.941 -32.126  -8.843  0.00  0.00    +0.000 OA
BRANCH  26  27
ATOM     27  C   UNL     1      -1.943 -32.769 -10.124  0.00  0.00    +0.000 C 
BRANCH  27  28
ATOM     28  C   UNL     1      -0.962 -33.916 -10.118  0.00  0.00    +0.000 A 
ATOM     29  C   UNL     1      -1.361 -35.190  -9.692  0.00  0.00    +0.000 A 
ATOM     30  C   UNL     1       0.378 -33.714 -10.481  0.00  0.00    +0.000 A 
ATOM     31  C   UNL     1      -0.446 -36.245  -9.655  0.00  0.00    +0.000 A 
ATOM     32  C   UNL     1       1.291 -34.769 -10.443  0.00  0.00    +0.000 A 
ATOM     33  C   UNL     1       0.878 -36.034 -10.031  0.00  0.00    +0.000 A 
ENDBRANCH  27  28
ENDBRANCH  26  27
ENDBRANCH  24  26
ENDBRANCH  21  23
BRANCH  21  34
ATOM     34  CB  UNL     1      -5.937 -34.307  -8.242  0.00  0.00    +0.000 C 
BRANCH  34  35
ATOM     35  CG  UNL     1      -5.241 -34.927  -9.471  0.00  0.00    +0.000 C 
ATOM     36  CD1 UNL     1      -5.340 -36.453  -9.492  0.00  0.00    +0.000 C 
ATOM     37  CD2 UNL     1      -5.861 -34.356 -10.752  0.00  0.00    +0.000 C 
ENDBRANCH  34  35
ENDBRANCH  21  34
ENDBRANCH   3  21
TORSDOF 15
ENDMDL
MODEL 2
REMARK VINA RESULT:      -5.4      2.914      7.871
REMARK  Name = 
REMARK  21 active torsions:
REMARK  status: ('A' for Active; 'I' for Inactive)
REMARK    1  A    between atoms: O_3  and  C_27
REMARK    2  A    between atoms: O_3  and  C_28
REMARK    3  A    between atoms: N_6  and  CA_9
REMARK    4  A    between atoms: N_7  and  CA_15
REMARK    5  A    between atoms: N_8  and  CA_12
REMARK    6  A    between atoms: CA_9  and  CB_10
REMARK    7  A    between atoms: CA_9  and  C_16
REMARK    8  A    between atoms: CB_10  and  CG_11
REMARK    9  A    between atoms: CG_11  and  CD1_20
REMARK   10  A    between atoms: CG_11  and  CD2_21
REMARK   11  A    between atoms: CA_12  and  CB_13
REMARK   12  A    between atoms: CA_12  and  C_18
REMARK   13  A    between atoms: CB_13  and  CG_14
REMARK   14  A    between atoms: CG_14  and  CD1_22
REMARK   15  A    between atoms: CG_14  and  CD2_23
REMARK   16  A    between atoms: CA_15  and  CB_17
REMARK   17  A    between atoms: CA_15  and  C_26
REMARK   18  A    between atoms: CB_17  and  CG_19
REMARK   19  A    between atoms: CG_19  and  CD1_24
REMARK   20  A    between atoms: CG_19  and  CD2_25
REMARK   21  A    between atoms: C_28  and  C_29
REMARK                            x       y       z     vdW  Elec       q    Type
REMARK                         _______ _______ _______ _____ _____    ______ ____
ROOT
ATOM      1  O   UNL     1      -6.776 -35.746  -4.021  0.00  0.00    +0.000 OA
ATOM      2  N   UNL     1      -5.276 -34.106  -3.505  0.00  0.00    +0.000 N 
ATOM      3  C   UNL     1      -6.371 -34.904  -3.224  0.00  0.00    +0.000 C 
ATOM      4  H   UNL     1      -4.739 -33.840  -2.683  0.00  0.00    +0.000 HD
ENDROOT
BRANCH   2   5
ATOM      5  CA  UNL     1      -4.494 -34.353  -4.717  0.00  0.00    +0.000 C 
BRANCH   5   8
ATOM      6  O   UNL     1      -2.485 -33.347  -3.828  0.00  0.00    +0.000 OA
ATOM      7  N   UNL     1      -2.279 -35.510  -4.305  0.00  0.00    +0.000 N 
ATOM      8  C   UNL     1      -3.027 -34.374  -4.249  0.00  0.00    +0.000 C 
ATOM      9  H   UNL     1      -1.349 -35.353  -3.931  0.00  0.00    +0.000 HD
BRANCH   7  10
ATOM     10  CA  UNL     1      -2.718 -36.902  -4.407  0.00  0.00    +0.000 C 
BRANCH  10  12
ATOM     11  O   UNL     1      -2.784 -37.246  -6.818  0.00  0.00    +0.000 OA
ATOM     12  C   UNL     1      -3.394 -37.142  -5.757  0.00  0.00    +0.000 C 
ENDBRANCH  10  12
BRANCH  10  13
ATOM     13  CB  UNL     1      -3.573 -37.331  -3.204  0.00  0.00    +0.000 C 
BRANCH  13  14
ATOM     14  CG  UNL     1      -3.000 -38.426  -2.278  0.00  0.00    +0.000 C 
ATOM     15  CD1 UNL     1      -3.776 -39.741  -2.332  0.00  0.00    +0.000 C 
ATOM     16  CD2 UNL     1      -1.533 -38.684  -2.642  0.00  0.00    +0.000 C 
ENDBRANCH  13  14
ENDBRANCH  10  13
ENDBRANCH   7  10
ENDBRANCH   5   8
BRANCH   5  17
ATOM     17  CB  UNL     1      -4.716 -33.215  -5.724  0.00  0.00    +0.000 C 
BRANCH  17  18
ATOM     18  CG  UNL     1      -4.878 -33.675  -7.187  0.00  0.00    +0.000 C 
ATOM     19  CD1 UNL     1      -3.537 -34.001  -7.845  0.00  0.00    +0.000 C 
ATOM     20  CD2 UNL     1      -5.783 -34.909  -7.242  0.00  0.00    +0.000 C 
ENDBRANCH  17  18
ENDBRANCH   5  17
ENDBRANCH   2   5
BRANCH   3  21
ATOM     21  CA  UNL     1      -6.974 -34.702  -1.811  0.00  0.00    +0.000 C 
BRANCH  21  23
ATOM     22  O   UNL     1      -7.744 -36.039   0.552  0.00  0.00    +0.000 OA
ATOM     23  N   UNL     1      -6.065 -35.257  -0.799  0.00  0.00    +0.000 N 
ATOM     24  C   ACE A   0      -6.558 -35.855   0.330  0.00  0.00    +0.000 C 
ATOM     25  H   UNL     1      -5.145 -34.847  -0.723  0.00  0.00    +0.000 HD
BRANCH  24  26
ATOM     26  O   UNL     1      -5.596 -36.129   1.242  0.00  0.00    +0.000 OA
BRANCH  26  27
ATOM     27  C   UNL     1      -5.398 -37.517   1.535  0.00  0.00    +0.000 C 
BRANCH  27  28
ATOM     28  C   UNL     1      -3.948 -37.879   1.326  0.00  0.00    +0.000 A 
ATOM     29  C   UNL     1      -3.526 -39.211   1.435  0.00  0.00    +0.000 A 
ATOM     30  C   UNL     1      -2.990 -36.885   1.078  0.00  0.00    +0.000 A 
ATOM     31  C   UNL     1      -2.179 -39.544   1.274  0.00  0.00    +0.000 A 
ATOM     32  C   UNL     1      -1.645 -37.219   0.917  0.00  0.00    +0.000 A 
ATOM     33  C   UNL     1      -1.240 -38.549   1.014  0.00  0.00    +0.000 A 
ENDBRANCH  27  28
ENDBRANCH  26  27
ENDBRANCH  24  26
ENDBRANCH  21  23
BRANCH  21  34
ATOM     34  CB  UNL     1      -7.234 -33.214  -1.518  0.00  0.00    +0.000 C 
BRANCH  34  35
ATOM     35  CG  UNL     1      -8.455 -32.589  -2.227  0.00  0.00    +0.000 C 
ATOM     36  CD1 UNL     1      -9.290 -31.715  -1.291  0.00  0.00    +0.000 C 
ATOM     37  CD2 UNL     1      -7.980 -31.753  -3.420  0.00  0.00    +0.000 C 
ENDBRANCH  34  35
ENDBRANCH  21  34
ENDBRANCH   3  21
TORSDOF 15
ENDMDL
MODEL 3
REMARK VINA RESULT:      -5.2     18.613     22.341
REMARK  Name = 
REMARK  21 active torsions:
REMARK  status: ('A' for Active; 'I' for Inactive)
REMARK    1  A    between atoms: O_3  and  C_27
REMARK    2  A    between atoms: O_3  and  C_28
REMARK    3  A    between atoms: N_6  and  CA_9
REMARK    4  A    between atoms: N_7  and  CA_15
REMARK    5  A    between atoms: N_8  and  CA_12
REMARK    6  A    between atoms: CA_9  and  CB_10
REMARK    7  A    between atoms: CA_9  and  C_16
REMARK    8  A    between atoms: CB_10  and  CG_11
REMARK    9  A    between atoms: CG_11  and  CD1_20
REMARK   10  A    between atoms: CG_11  and  CD2_21
REMARK   11  A    between atoms: CA_12  and  CB_13
REMARK   12  A    between atoms: CA_12  and  C_18
REMARK   13  A    between atoms: CB_13  and  CG_14
REMARK   14  A    between atoms: CG_14  and  CD1_22
REMARK   15  A    between atoms: CG_14  and  CD2_23
REMARK   16  A    between atoms: CA_15  and  CB_17
REMARK   17  A    between atoms: CA_15  and  C_26
REMARK   18  A    between atoms: CB_17  and  CG_19
REMARK   19  A    between atoms: CG_19  and  CD1_24
REMARK   20  A    between atoms: CG_19  and  CD2_25
REMARK   21  A    between atoms: C_28  and  C_29
REMARK                            x       y       z     vdW  Elec       q    Type
REMARK                         _______ _______ _______ _____ _____    ______ ____
ROOT
ATOM      1  O   UNL     1      -2.407 -12.910  -0.538  0.00  0.00    +0.000 OA
ATOM      2  N   UNL     1      -4.014 -14.266  -1.423  0.00  0.00    +0.000 N 
ATOM      3  C   UNL     1      -3.580 -13.078  -0.859  0.00  0.00    +0.000 C 
ATOM      4  H   UNL     1      -4.786 -14.153  -2.076  0.00  0.00    +0.000 HD
ENDROOT
BRANCH   2   5
ATOM      5  CA  UNL     1      -3.039 -15.299  -1.771  0.00  0.00    +0.000 C 
BRANCH   5   8
ATOM      6  O   UNL     1      -3.797 -15.438  -4.061  0.00  0.00    +0.000 OA
ATOM      7  N   UNL     1      -1.670 -14.820  -3.848  0.00  0.00    +0.000 N 
ATOM      8  C   UNL     1      -2.861 -15.183  -3.297  0.00  0.00    +0.000 C 
ATOM      9  H   UNL     1      -1.739 -14.764  -4.859  0.00  0.00    +0.000 HD
BRANCH   7  10
ATOM     10  CA  UNL     1      -0.535 -14.136  -3.229  0.00  0.00    +0.000 C 
BRANCH  10  12
ATOM     11  O   UNL     1       0.036 -12.704  -5.116  0.00  0.00    +0.000 OA
ATOM     12  C   UNL     1       0.384 -13.562  -4.308  0.00  0.00    +0.000 C 
ENDBRANCH  10  12
BRANCH  10  13
ATOM     13  CB  UNL     1       0.193 -15.024  -2.208  0.00  0.00    +0.000 C 
BRANCH  13  14
ATOM     14  CG  UNL     1       0.620 -16.436  -2.669  0.00  0.00    +0.000 C 
ATOM     15  CD1 UNL     1       2.130 -16.594  -2.834  0.00  0.00    +0.000 C 
ATOM     16  CD2 UNL     1       0.104 -17.475  -1.667  0.00  0.00    +0.000 C 
ENDBRANCH  13  14
ENDBRANCH  10  13
ENDBRANCH   7  10
ENDBRANCH   5   8
BRANCH   5  17
ATOM     17  CB  UNL     1      -3.589 -16.685  -1.403  0.00  0.00    +0.000 C 
BRANCH  17  18
ATOM     18  CG  UNL     1      -3.963 -16.853   0.083  0.00  0.00    +0.000 C 
ATOM     19  CD1 UNL     1      -5.096 -17.859   0.287  0.00  0.00    +0.000 C 
ATOM     20  CD2 UNL     1      -2.733 -17.308   0.875  0.00  0.00    +0.000 C 
ENDBRANCH  17  18
ENDBRANCH   5  17
ENDBRANCH   2   5
BRANCH   3  21
ATOM     21  CA  UNL     1      -4.665 -11.979  -0.751  0.00  0.00    +0.000 C 
BRANCH  21  23
ATOM     22  O   UNL     1      -7.365 -11.456  -1.387  0.00  0.00    +0.000 OA
ATOM     23  N   UNL     1      -5.836 -12.505  -0.037  0.00  0.00    +0.000 N 
ATOM     24  C   ACE A   0      -7.103 -12.150  -0.418  0.00  0.00    +0.000 C 
ATOM     25  H   UNL     1      -5.716 -12.762   0.932  0.00  0.00    +0.000 HD
BRANCH  24  26
ATOM     26  O   UNL     1      -8.049 -12.559   0.461  0.00  0.00    +0.000 OA
BRANCH  26  27
ATOM     27  C   UNL     1      -7.659 -13.623   1.338  0.00  0.00    +0.000 C 
BRANCH  27  28
ATOM     28  C   UNL     1      -8.763 -14.649   1.415  0.00  0.00    +0.000 A 
ATOM     29  C   UNL     1      -8.467 -15.993   1.679  0.00  0.00    +0.000 A 
ATOM     30  C   UNL     1     -10.095 -14.287   1.165  0.00  0.00    +0.000 A 
ATOM     31  C   UNL     1      -9.484 -16.950   1.718  0.00  0.00    +0.000 A 
ATOM     32  C   UNL     1     -11.111 -15.244   1.204  0.00  0.00    +0.000 A 
ATOM     33  C   UNL     1     -10.805 -16.575   1.482  0.00  0.00    +0.000 A 
ENDBRANCH  27  28
ENDBRANCH  26  27
ENDBRANCH  24  26
ENDBRANCH  21  23
BRANCH  21  34
ATOM     34  CB  UNL     1      -4.131 -10.730  -0.027  0.00  0.00    +0.000 C 
BRANCH  34  35
ATOM     35  CG  UNL     1      -4.467  -9.374  -0.683  0.00  0.00    +0.000 C 
ATOM     36  CD1 UNL     1      -5.684  -8.702  -0.046  0.00  0.00    +0.000 C 
ATOM     37  CD2 UNL     1      -3.255  -8.442  -0.578  0.00  0.00    +0.000 C 
ENDBRANCH  34  35
ENDBRANCH  21  34
ENDBRANCH   3  21
TORSDOF 15
ENDMDL
MODEL 4
REMARK VINA RESULT:      -5.2      3.009      8.200
REMARK  Name = 
REMARK  21 active torsions:
REMARK  status: ('A' for Active; 'I' for Inactive)
REMARK    1  A    between atoms: O_3  and  C_27
REMARK    2  A    between atoms: O_3  and  C_28
REMARK    3  A    between atoms: N_6  and  CA_9
REMARK    4  A    between atoms: N_7  and  CA_15
REMARK    5  A    between atoms: N_8  and  CA_12
REMARK    6  A    between atoms: CA_9  and  CB_10
REMARK    7  A    between atoms: CA_9  and  C_16
REMARK    8  A    between atoms: CB_10  and  CG_11
REMARK    9  A    between atoms: CG_11  and  CD1_20
REMARK   10  A    between atoms: CG_11  and  CD2_21
REMARK   11  A    between atoms: CA_12  and  CB_13
REMARK   12  A    between atoms: CA_12  and  C_18
REMARK   13  A    between atoms: CB_13  and  CG_14
REMARK   14  A    between atoms: CG_14  and  CD1_22
REMARK   15  A    between atoms: CG_14  and  CD2_23
REMARK   16  A    between atoms: CA_15  and  CB_17
REMARK   17  A    between atoms: CA_15  and  C_26
REMARK   18  A    between atoms: CB_17  and  CG_19
REMARK   19  A    between atoms: CG_19  and  CD1_24
REMARK   20  A    between atoms: CG_19  and  CD2_25
REMARK   21  A    between atoms: C_28  and  C_29
REMARK                            x       y       z     vdW  Elec       q    Type
REMARK                         _______ _______ _______ _____ _____    ______ ____
ROOT
ATOM      1  O   UNL     1      -7.245 -35.134  -3.814  0.00  0.00    +0.000 OA
ATOM      2  N   UNL     1      -5.317 -34.056  -3.243  0.00  0.00    +0.000 N 
ATOM      3  C   UNL     1      -6.573 -34.565  -2.959  0.00  0.00    +0.000 C 
ATOM      4  H   UNL     1      -4.678 -34.074  -2.452  0.00  0.00    +0.000 HD
ENDROOT
BRANCH   2   5
ATOM      5  CA  UNL     1      -4.712 -34.314  -4.551  0.00  0.00    +0.000 C 
BRANCH   5   8
ATOM      6  O   UNL     1      -2.658 -33.488  -3.582  0.00  0.00    +0.000 OA
ATOM      7  N   UNL     1      -2.399 -35.304  -4.841  0.00  0.00    +0.000 N 
ATOM      8  C   UNL     1      -3.195 -34.348  -4.288  0.00  0.00    +0.000 C 
ATOM      9  H   UNL     1      -1.436 -35.195  -4.541  0.00  0.00    +0.000 HD
BRANCH   7  10
ATOM     10  CA  UNL     1      -2.768 -36.606  -5.398  0.00  0.00    +0.000 C 
BRANCH  10  12
ATOM     11  O   UNL     1      -1.206 -37.544  -3.782  0.00  0.00    +0.000 OA
ATOM     12  C   UNL     1      -1.909 -37.706  -4.776  0.00  0.00    +0.000 C 
ENDBRANCH  10  12
BRANCH  10  13
ATOM     13  CB  UNL     1      -2.751 -36.605  -6.935  0.00  0.00    +0.000 C 
BRANCH  13  14
ATOM     14  CG  UNL     1      -3.921 -37.307  -7.660  0.00  0.00    +0.000 C 
ATOM     15  CD1 UNL     1      -5.241 -37.245  -6.895  0.00  0.00    +0.000 C 
ATOM     16  CD2 UNL     1      -4.106 -36.683  -9.048  0.00  0.00    +0.000 C 
ENDBRANCH  13  14
ENDBRANCH  10  13
ENDBRANCH   7  10
ENDBRANCH   5   8
BRANCH   5  17
ATOM     17  CB  UNL     1      -5.060 -33.177  -5.522  0.00  0.00    +0.000 C 
BRANCH  17  18
ATOM     18  CG  UNL     1      -4.741 -33.476  -7.000  0.00  0.00    +0.000 C 
ATOM     19  CD1 UNL     1      -6.004 -33.625  -7.849  0.00  0.00    +0.000 C 
ATOM     20  CD2 UNL     1      -3.872 -32.354  -7.577  0.00  0.00    +0.000 C 
ENDBRANCH  17  18
ENDBRANCH   5  17
ENDBRANCH   2   5
BRANCH   3  21
ATOM     21  CA  UNL     1      -7.007 -34.429  -1.479  0.00  0.00    +0.000 C 
BRANCH  21  23
ATOM     22  O   UNL     1      -7.742 -37.089  -0.886  0.00  0.00    +0.000 OA
ATOM     23  N   UNL     1      -6.243 -35.369  -0.649  0.00  0.00    +0.000 N 
ATOM     24  C   ACE A   0      -6.720 -36.629  -0.401  0.00  0.00    +0.000 C 
ATOM     25  H   UNL     1      -5.623 -34.981   0.048  0.00  0.00    +0.000 HD
BRANCH  24  26
ATOM     26  O   UNL     1      -5.998 -37.289   0.536  0.00  0.00    +0.000 OA
BRANCH  26  27
ATOM     27  C   UNL     1      -4.935 -36.540   1.138  0.00  0.00    +0.000 C 
BRANCH  27  28
ATOM     28  C   UNL     1      -3.673 -37.367   1.144  0.00  0.00    +0.000 A 
ATOM     29  C   UNL     1      -3.662 -38.642   1.726  0.00  0.00    +0.000 A 
ATOM     30  C   UNL     1      -2.476 -36.852   0.624  0.00  0.00    +0.000 A 
ATOM     31  C   UNL     1      -2.487 -39.396   1.763  0.00  0.00    +0.000 A 
ATOM     32  C   UNL     1      -1.302 -37.606   0.661  0.00  0.00    +0.000 A 
ATOM     33  C   UNL     1      -1.308 -38.879   1.230  0.00  0.00    +0.000 A 
ENDBRANCH  27  28
ENDBRANCH  26  27
ENDBRANCH  24  26
ENDBRANCH  21  23
BRANCH  21  34
ATOM     34  CB  UNL     1      -6.803 -32.993  -0.963  0.00  0.00    +0.000 C 
BRANCH  34  35
ATOM     35  CG  UNL     1      -8.076 -32.257  -0.492  0.00  0.00    +0.000 C 
ATOM     36  CD1 UNL     1      -9.034 -31.952  -1.644  0.00  0.00    +0.000 C 
ATOM     37  CD2 UNL     1      -8.796 -33.104   0.562  0.00  0.00    +0.000 C 
ENDBRANCH  34  35
ENDBRANCH  21  34
ENDBRANCH   3  21
TORSDOF 15
ENDMDL
MODEL 5
REMARK VINA RESULT:      -5.1      2.619      9.291
REMARK  Name = 
REMARK  21 active torsions:
REMARK  status: ('A' for Active; 'I' for Inactive)
REMARK    1  A    between atoms: O_3  and  C_27
REMARK    2  A    between atoms: O_3  and  C_28
REMARK    3  A    between atoms: N_6  and  CA_9
REMARK    4  A    between atoms: N_7  and  CA_15
REMARK    5  A    between atoms: N_8  and  CA_12
REMARK    6  A    between atoms: CA_9  and  CB_10
REMARK    7  A    between atoms: CA_9  and  C_16
REMARK    8  A    between atoms: CB_10  and  CG_11
REMARK    9  A    between atoms: CG_11  and  CD1_20
REMARK   10  A    between atoms: CG_11  and  CD2_21
REMARK   11  A    between atoms: CA_12  and  CB_13
REMARK   12  A    between atoms: CA_12  and  C_18
REMARK   13  A    between atoms: CB_13  and  CG_14
REMARK   14  A    between atoms: CG_14  and  CD1_22
REMARK   15  A    between atoms: CG_14  and  CD2_23
REMARK   16  A    between atoms: CA_15  and  CB_17
REMARK   17  A    between atoms: CA_15  and  C_26
REMARK   18  A    between atoms: CB_17  and  CG_19
REMARK   19  A    between atoms: CG_19  and  CD1_24
REMARK   20  A    between atoms: CG_19  and  CD2_25
REMARK   21  A    between atoms: C_28  and  C_29
REMARK                            x       y       z     vdW  Elec       q    Type
REMARK                         _______ _______ _______ _____ _____    ______ ____
ROOT
ATOM      1  O   UNL     1      -6.636 -32.575  -4.643  0.00  0.00    +0.000 OA
ATOM      2  N   UNL     1      -6.699 -34.722  -3.876  0.00  0.00    +0.000 N 
ATOM      3  C   UNL     1      -7.196 -33.433  -3.968  0.00  0.00    +0.000 C 
ATOM      4  H   UNL     1      -7.417 -35.432  -3.751  0.00  0.00    +0.000 HD
ENDROOT
BRANCH   2   5
ATOM      5  CA  UNL     1      -5.558 -35.117  -4.704  0.00  0.00    +0.000 C 
BRANCH   5   8
ATOM      6  O   UNL     1      -7.201 -36.569  -5.719  0.00  0.00    +0.000 OA
ATOM      7  N   UNL     1      -5.582 -35.926  -7.103  0.00  0.00    +0.000 N 
ATOM      8  C   UNL     1      -6.169 -35.909  -5.875  0.00  0.00    +0.000 C 
ATOM      9  H   UNL     1      -6.132 -36.469  -7.761  0.00  0.00    +0.000 HD
BRANCH   7  10
ATOM     10  CA  UNL     1      -4.604 -35.000  -7.674  0.00  0.00    +0.000 C 
BRANCH  10  12
ATOM     11  O   UNL     1      -2.251 -35.418  -8.152  0.00  0.00    +0.000 OA
ATOM     12  C   UNL     1      -3.185 -35.474  -7.356  0.00  0.00    +0.000 C 
ENDBRANCH  10  12
BRANCH  10  13
ATOM     13  CB  UNL     1      -4.874 -33.544  -7.264  0.00  0.00    +0.000 C 
BRANCH  13  14
ATOM     14  CG  UNL     1      -4.667 -32.452  -8.337  0.00  0.00    +0.000 C 
ATOM     15  CD1 UNL     1      -3.349 -31.695  -8.193  0.00  0.00    +0.000 C 
ATOM     16  CD2 UNL     1      -4.740 -33.089  -9.730  0.00  0.00    +0.000 C 
ENDBRANCH  13  14
ENDBRANCH  10  13
ENDBRANCH   7  10
ENDBRANCH   5   8
BRANCH   5  17
ATOM     17  CB  UNL     1      -4.608 -36.011  -3.894  0.00  0.00    +0.000 C 
BRANCH  17  18
ATOM     18  CG  UNL     1      -3.281 -35.339  -3.489  0.00  0.00    +0.000 C 
ATOM     19  CD1 UNL     1      -2.062 -36.104  -4.004  0.00  0.00    +0.000 C 
ATOM     20  CD2 UNL     1      -3.245 -33.905  -4.027  0.00  0.00    +0.000 C 
ENDBRANCH  17  18
ENDBRANCH   5  17
ENDBRANCH   2   5
BRANCH   3  21
ATOM     21  CA  UNL     1      -8.536 -33.203  -3.228  0.00  0.00    +0.000 C 
BRANCH  21  23
ATOM     22  O   UNL     1     -10.927 -34.684  -2.979  0.00  0.00    +0.000 OA
ATOM     23  N   UNL     1      -8.776 -34.301  -2.281  0.00  0.00    +0.000 N 
ATOM     24  C   ACE A   0      -9.995 -34.923  -2.228  0.00  0.00    +0.000 C 
ATOM     25  H   UNL     1      -8.231 -34.313  -1.431  0.00  0.00    +0.000 HD
BRANCH  24  26
ATOM     26  O   UNL     1     -10.107 -35.767  -1.175  0.00  0.00    +0.000 OA
BRANCH  26  27
ATOM     27  C   UNL     1     -11.122 -35.432  -0.220  0.00  0.00    +0.000 C 
BRANCH  27  28
ATOM     28  C   UNL     1     -10.514 -34.635   0.908  0.00  0.00    +0.000 A 
ATOM     29  C   UNL     1     -11.251 -33.627   1.543  0.00  0.00    +0.000 A 
ATOM     30  C   UNL     1      -9.184 -34.849   1.300  0.00  0.00    +0.000 A 
ATOM     31  C   UNL     1     -10.679 -32.866   2.566  0.00  0.00    +0.000 A 
ATOM     32  C   UNL     1      -8.613 -34.088   2.322  0.00  0.00    +0.000 A 
ATOM     33  C   UNL     1      -9.362 -33.097   2.955  0.00  0.00    +0.000 A 
ENDBRANCH  27  28
ENDBRANCH  26  27
ENDBRANCH  24  26
ENDBRANCH  21  23
BRANCH  21  34
ATOM     34  CB  UNL     1      -8.542 -31.858  -2.479  0.00  0.00    +0.000 C 
BRANCH  34  35
ATOM     35  CG  UNL     1      -8.633 -31.941  -0.941  0.00  0.00    +0.000 C 
ATOM     36  CD1 UNL     1      -7.301 -31.625  -0.259  0.00  0.00    +0.000 C 
ATOM     37  CD2 UNL     1      -9.708 -30.972  -0.439  0.00  0.00    +0.000 C 
ENDBRANCH  34  35
ENDBRANCH  21  34
ENDBRANCH   3  21
TORSDOF 15
ENDMDL
MODEL 6
REMARK VINA RESULT:      -5.0      3.666      8.780
REMARK  Name = 
REMARK  21 active torsions:
REMARK  status: ('A' for Active; 'I' for Inactive)
REMARK    1  A    between atoms: O_3  and  C_27
REMARK    2  A    between atoms: O_3  and  C_28
REMARK    3  A    between atoms: N_6  and  CA_9
REMARK    4  A    between atoms: N_7  and  CA_15
REMARK    5  A    between atoms: N_8  and  CA_12
REMARK    6  A    between atoms: CA_9  and  CB_10
REMARK    7  A    between atoms: CA_9  and  C_16
REMARK    8  A    between atoms: CB_10  and  CG_11
REMARK    9  A    between atoms: CG_11  and  CD1_20
REMARK   10  A    between atoms: CG_11  and  CD2_21
REMARK   11  A    between atoms: CA_12  and  CB_13
REMARK   12  A    between atoms: CA_12  and  C_18
REMARK   13  A    between atoms: CB_13  and  CG_14
REMARK   14  A    between atoms: CG_14  and  CD1_22
REMARK   15  A    between atoms: CG_14  and  CD2_23
REMARK   16  A    between atoms: CA_15  and  CB_17
REMARK   17  A    between atoms: CA_15  and  C_26
REMARK   18  A    between atoms: CB_17  and  CG_19
REMARK   19  A    between atoms: CG_19  and  CD1_24
REMARK   20  A    between atoms: CG_19  and  CD2_25
REMARK   21  A    between atoms: C_28  and  C_29
REMARK                            x       y       z     vdW  Elec       q    Type
REMARK                         _______ _______ _______ _____ _____    ______ ____
ROOT
ATOM      1  O   UNL     1      -6.189 -36.647  -2.453  0.00  0.00    +0.000 OA
ATOM      2  N   UNL     1      -5.344 -34.770  -3.435  0.00  0.00    +0.000 N 
ATOM      3  C   UNL     1      -6.168 -35.423  -2.534  0.00  0.00    +0.000 C 
ATOM      4  H   UNL     1      -5.024 -33.859  -3.115  0.00  0.00    +0.000 HD
ENDROOT
BRANCH   2   5
ATOM      5  CA  UNL     1      -4.377 -35.540  -4.219  0.00  0.00    +0.000 C 
BRANCH   5   8
ATOM      6  O   UNL     1      -2.484 -34.094  -3.814  0.00  0.00    +0.000 OA
ATOM      7  N   UNL     1      -2.318 -36.094  -2.853  0.00  0.00    +0.000 N 
ATOM      8  C   UNL     1      -3.005 -35.195  -3.610  0.00  0.00    +0.000 C 
ATOM      9  H   UNL     1      -1.452 -35.693  -2.508  0.00  0.00    +0.000 HD
BRANCH   7  10
ATOM     10  CA  UNL     1      -2.807 -37.288  -2.163  0.00  0.00    +0.000 C 
BRANCH  10  12
ATOM     11  O   UNL     1      -1.780 -36.483  -0.107  0.00  0.00    +0.000 OA
ATOM     12  C   UNL     1      -2.687 -37.108  -0.650  0.00  0.00    +0.000 C 
ENDBRANCH  10  12
BRANCH  10  13
ATOM     13  CB  UNL     1      -2.144 -38.573  -2.686  0.00  0.00    +0.000 C 
BRANCH  13  14
ATOM     14  CG  UNL     1      -0.682 -38.472  -3.172  0.00  0.00    +0.000 C 
ATOM     15  CD1 UNL     1       0.331 -39.054  -2.188  0.00  0.00    +0.000 C 
ATOM     16  CD2 UNL     1      -0.546 -39.182  -4.524  0.00  0.00    +0.000 C 
ENDBRANCH  13  14
ENDBRANCH  10  13
ENDBRANCH   7  10
ENDBRANCH   5   8
BRANCH   5  17
ATOM     17  CB  UNL     1      -4.431 -35.105  -5.691  0.00  0.00    +0.000 C 
BRANCH  17  18
ATOM     18  CG  UNL     1      -5.619 -34.190  -6.047  0.00  0.00    +0.000 C 
ATOM     19  CD1 UNL     1      -5.171 -32.884  -6.705  0.00  0.00    +0.000 C 
ATOM     20  CD2 UNL     1      -6.576 -34.929  -6.987  0.00  0.00    +0.000 C 
ENDBRANCH  17  18
ENDBRANCH   5  17
ENDBRANCH   2   5
BRANCH   3  21
ATOM     21  CA  UNL     1      -6.977 -34.487  -1.602  0.00  0.00    +0.000 C 
BRANCH  21  23
ATOM     22  O   UNL     1      -8.892 -35.327   0.294  0.00  0.00    +0.000 OA
ATOM     23  N   UNL     1      -6.708 -34.829  -0.199  0.00  0.00    +0.000 N 
ATOM     24  C   ACE A   0      -7.729 -35.191   0.639  0.00  0.00    +0.000 C 
ATOM     25  H   UNL     1      -5.898 -34.412   0.236  0.00  0.00    +0.000 HD
BRANCH  24  26
ATOM     26  O   UNL     1      -7.339 -35.277   1.934  0.00  0.00    +0.000 OA
BRANCH  26  27
ATOM     27  C   UNL     1      -7.491 -36.566   2.540  0.00  0.00    +0.000 C 
BRANCH  27  28
ATOM     28  C   UNL     1      -6.154 -37.264   2.590  0.00  0.00    +0.000 A 
ATOM     29  C   UNL     1      -4.990 -36.549   2.905  0.00  0.00    +0.000 A 
ATOM     30  C   UNL     1      -6.043 -38.624   2.265  0.00  0.00    +0.000 A 
ATOM     31  C   UNL     1      -3.748 -37.186   2.920  0.00  0.00    +0.000 A 
ATOM     32  C   UNL     1      -4.801 -39.260   2.280  0.00  0.00    +0.000 A 
ATOM     33  C   UNL     1      -3.653 -38.541   2.609  0.00  0.00    +0.000 A 
ENDBRANCH  27  28
ENDBRANCH  26  27
ENDBRANCH  24  26
ENDBRANCH  21  23
BRANCH  21  34
ATOM     34  CB  UNL     1      -6.634 -33.008  -1.854  0.00  0.00    +0.000 C 
BRANCH  34  35
ATOM     35  CG  UNL     1      -7.795 -32.006  -1.680  0.00  0.00    +0.000 C 
ATOM     36  CD1 UNL     1      -9.153 -32.620  -2.024  0.00  0.00    +0.000 C 
ATOM     37  CD2 UNL     1      -7.816 -31.493  -0.236  0.00  0.00    +0.000 C 
ENDBRANCH  34  35
ENDBRANCH  21  34
ENDBRANCH   3  21
TORSDOF 15
ENDMDL
MODEL 7
REMARK VINA RESULT:      -4.9     15.582     17.492
REMARK  Name = 
REMARK  21 active torsions:
REMARK  status: ('A' for Active; 'I' for Inactive)
REMARK    1  A    between atoms: O_3  and  C_27
REMARK    2  A    between atoms: O_3  and  C_28
REMARK    3  A    between atoms: N_6  and  CA_9
REMARK    4  A    between atoms: N_7  and  CA_15
REMARK    5  A    between atoms: N_8  and  CA_12
REMARK    6  A    between atoms: CA_9  and  CB_10
REMARK    7  A    between atoms: CA_9  and  C_16
REMARK    8  A    between atoms: CB_10  and  CG_11
REMARK    9  A    between atoms: CG_11  and  CD1_20
REMARK   10  A    between atoms: CG_11  and  CD2_21
REMARK   11  A    between atoms: CA_12  and  CB_13
REMARK   12  A    between atoms: CA_12  and  C_18
REMARK   13  A    between atoms: CB_13  and  CG_14
REMARK   14  A    between atoms: CG_14  and  CD1_22
REMARK   15  A    between atoms: CG_14  and  CD2_23
REMARK   16  A    between atoms: CA_15  and  CB_17
REMARK   17  A    between atoms: CA_15  and  C_26
REMARK   18  A    between atoms: CB_17  and  CG_19
REMARK   19  A    between atoms: CG_19  and  CD1_24
REMARK   20  A    between atoms: CG_19  and  CD2_25
REMARK   21  A    between atoms: C_28  and  C_29
REMARK                            x       y       z     vdW  Elec       q    Type
REMARK                         _______ _______ _______ _____ _____    ______ ____
ROOT
ATOM      1  O   UNL     1      -1.115 -17.207   1.454  0.00  0.00    +0.000 OA
ATOM      2  N   UNL     1      -1.794 -18.882   0.060  0.00  0.00    +0.000 N 
ATOM      3  C   UNL     1      -1.217 -17.649   0.313  0.00  0.00    +0.000 C 
ATOM      4  H   UNL     1      -1.406 -19.359  -0.750  0.00  0.00    +0.000 HD
ENDROOT
BRANCH   2   5
ATOM      5  CA  UNL     1      -2.172 -19.745   1.180  0.00  0.00    +0.000 C 
BRANCH   5   8
ATOM      6  O   UNL     1      -2.011 -21.848   0.001  0.00  0.00    +0.000 OA
ATOM      7  N   UNL     1      -0.435 -21.551   1.544  0.00  0.00    +0.000 N 
ATOM      8  C   UNL     1      -1.530 -21.109   0.866  0.00  0.00    +0.000 C 
ATOM      9  H   UNL     1      -0.127 -22.452   1.190  0.00  0.00    +0.000 HD
BRANCH   7  10
ATOM     10  CA  UNL     1       0.535 -20.790   2.332  0.00  0.00    +0.000 C 
BRANCH  10  12
ATOM     11  O   UNL     1       1.729 -18.955   1.264  0.00  0.00    +0.000 OA
ATOM     12  C   UNL     1       1.584 -20.166   1.412  0.00  0.00    +0.000 C 
ENDBRANCH  10  12
BRANCH  10  13
ATOM     13  CB  UNL     1       1.135 -21.623   3.476  0.00  0.00    +0.000 C 
BRANCH  13  14
ATOM     14  CG  UNL     1       2.582 -21.301   3.908  0.00  0.00    +0.000 C 
ATOM     15  CD1 UNL     1       2.690 -20.774   5.338  0.00  0.00    +0.000 C 
ATOM     16  CD2 UNL     1       3.448 -22.557   3.760  0.00  0.00    +0.000 C 
ENDBRANCH  13  14
ENDBRANCH  10  13
ENDBRANCH   7  10
ENDBRANCH   5   8
BRANCH   5  17
ATOM     17  CB  UNL     1      -3.700 -19.878   1.245  0.00  0.00    +0.000 C 
BRANCH  17  18
ATOM     18  CG  UNL     1      -4.455 -18.541   1.388  0.00  0.00    +0.000 C 
ATOM     19  CD1 UNL     1      -5.709 -18.485   0.514  0.00  0.00    +0.000 C 
ATOM     20  CD2 UNL     1      -4.849 -18.326   2.853  0.00  0.00    +0.000 C 
ENDBRANCH  17  18
ENDBRANCH   5  17
ENDBRANCH   2   5
BRANCH   3  21
ATOM     21  CA  UNL     1      -0.649 -16.932  -0.937  0.00  0.00    +0.000 C 
BRANCH  21  23
ATOM     22  O   UNL     1       1.599 -15.493  -1.855  0.00  0.00    +0.000 OA
ATOM     23  N   UNL     1       0.656 -17.506  -1.289  0.00  0.00    +0.000 N 
ATOM     24  C   ACE A   0       1.665 -16.709  -1.760  0.00  0.00    +0.000 C 
ATOM     25  H   UNL     1       0.679 -18.473  -1.579  0.00  0.00    +0.000 HD
BRANCH  24  26
ATOM     26  O   UNL     1       2.723 -17.418  -2.221  0.00  0.00    +0.000 OA
BRANCH  26  27
ATOM     27  C   UNL     1       2.644 -18.837  -2.035  0.00  0.00    +0.000 C 
BRANCH  27  28
ATOM     28  C   UNL     1       3.946 -19.477  -2.450  0.00  0.00    +0.000 A 
ATOM     29  C   UNL     1       5.123 -18.717  -2.512  0.00  0.00    +0.000 A 
ATOM     30  C   UNL     1       3.991 -20.824  -2.837  0.00  0.00    +0.000 A 
ATOM     31  C   UNL     1       6.322 -19.299  -2.927  0.00  0.00    +0.000 A 
ATOM     32  C   UNL     1       5.191 -21.405  -3.252  0.00  0.00    +0.000 A 
ATOM     33  C   UNL     1       6.356 -20.642  -3.296  0.00  0.00    +0.000 A 
ENDBRANCH  27  28
ENDBRANCH  26  27
ENDBRANCH  24  26
ENDBRANCH  21  23
BRANCH  21  34
ATOM     34  CB  UNL     1      -1.609 -17.044  -2.135  0.00  0.00    +0.000 C 
BRANCH  34  35
ATOM     35  CG  UNL     1      -2.683 -15.942  -2.247  0.00  0.00    +0.000 C 
ATOM     36  CD1 UNL     1      -2.631 -15.209  -3.588  0.00  0.00    +0.000 C 
ATOM     37  CD2 UNL     1      -4.072 -16.560  -2.054  0.00  0.00    +0.000 C 
ENDBRANCH  34  35
ENDBRANCH  21  34
ENDBRANCH   3  21
TORSDOF 15
ENDMDL
MODEL 8
REMARK VINA RESULT:      -4.8      3.701      6.176
REMARK  Name = 
REMARK  21 active torsions:
REMARK  status: ('A' for Active; 'I' for Inactive)
REMARK    1  A    between atoms: O_3  and  C_27
REMARK    2  A    between atoms: O_3  and  C_28
REMARK    3  A    between atoms: N_6  and  CA_9
REMARK    4  A    between atoms: N_7  and  CA_15
REMARK    5  A    between atoms: N_8  and  CA_12
REMARK    6  A    between atoms: CA_9  and  CB_10
REMARK    7  A    between atoms: CA_9  and  C_16
REMARK    8  A    between atoms: CB_10  and  CG_11
REMARK    9  A    between atoms: CG_11  and  CD1_20
REMARK   10  A    between atoms: CG_11  and  CD2_21
REMARK   11  A    between atoms: CA_12  and  CB_13
REMARK   12  A    between atoms: CA_12  and  C_18
REMARK   13  A    between atoms: CB_13  and  CG_14
REMARK   14  A    between atoms: CG_14  and  CD1_22
REMARK   15  A    between atoms: CG_14  and  CD2_23
REMARK   16  A    between atoms: CA_15  and  CB_17
REMARK   17  A    between atoms: CA_15  and  C_26
REMARK   18  A    between atoms: CB_17  and  CG_19
REMARK   19  A    between atoms: CG_19  and  CD1_24
REMARK   20  A    between atoms: CG_19  and  CD2_25
REMARK   21  A    between atoms: C_28  and  C_29
REMARK                            x       y       z     vdW  Elec       q    Type
REMARK                         _______ _______ _______ _____ _____    ______ ____
ROOT
ATOM      1  O   UNL     1      -9.251 -35.939  -2.868  0.00  0.00    +0.000 OA
ATOM      2  N   UNL     1      -9.890 -34.729  -4.694  0.00  0.00    +0.000 N 
ATOM      3  C   UNL     1      -9.071 -34.974  -3.604  0.00  0.00    +0.000 C 
ATOM      4  H   UNL     1      -9.416 -34.275  -5.471  0.00  0.00    +0.000 HD
ENDROOT
BRANCH   2   5
ATOM      5  CA  UNL     1     -10.912 -35.709  -5.062  0.00  0.00    +0.000 C 
BRANCH   5   8
ATOM      6  O   UNL     1     -10.775 -35.103  -7.398  0.00  0.00    +0.000 OA
ATOM      7  N   UNL     1     -10.348 -37.249  -6.993  0.00  0.00    +0.000 N 
ATOM      8  C   UNL     1     -10.667 -36.000  -6.555  0.00  0.00    +0.000 C 
ATOM      9  H   UNL     1     -10.192 -37.254  -7.995  0.00  0.00    +0.000 HD
BRANCH   7  10
ATOM     10  CA  UNL     1      -9.816 -38.385  -6.240  0.00  0.00    +0.000 C 
BRANCH  10  12
ATOM     11  O   UNL     1      -8.253 -38.632  -8.092  0.00  0.00    +0.000 OA
ATOM     12  C   UNL     1      -8.614 -38.982  -6.972  0.00  0.00    +0.000 C 
ENDBRANCH  10  12
BRANCH  10  13
ATOM     13  CB  UNL     1     -10.903 -39.415  -5.897  0.00  0.00    +0.000 C 
BRANCH  13  14
ATOM     14  CG  UNL     1     -11.085 -39.790  -4.410  0.00  0.00    +0.000 C 
ATOM     15  CD1 UNL     1     -12.432 -40.443  -4.104  0.00  0.00    +0.000 C 
ATOM     16  CD2 UNL     1      -9.953 -40.730  -3.981  0.00  0.00    +0.000 C 
ENDBRANCH  13  14
ENDBRANCH  10  13
ENDBRANCH   7  10
ENDBRANCH   5   8
BRANCH   5  17
ATOM     17  CB  UNL     1     -12.311 -35.109  -4.860  0.00  0.00    +0.000 C 
BRANCH  17  18
ATOM     18  CG  UNL     1     -13.318 -36.046  -4.164  0.00  0.00    +0.000 C 
ATOM     19  CD1 UNL     1     -13.884 -37.100  -5.116  0.00  0.00    +0.000 C 
ATOM     20  CD2 UNL     1     -12.640 -36.745  -2.981  0.00  0.00    +0.000 C 
ENDBRANCH  17  18
ENDBRANCH   5  17
ENDBRANCH   2   5
BRANCH   3  21
ATOM     21  CA  UNL     1      -7.885 -33.989  -3.453  0.00  0.00    +0.000 C 
BRANCH  21  23
ATOM     22  O   UNL     1      -5.180 -34.783  -3.316  0.00  0.00    +0.000 OA
ATOM     23  N   UNL     1      -6.970 -34.134  -4.594  0.00  0.00    +0.000 N 
ATOM     24  C   ACE A   0      -5.663 -34.493  -4.398  0.00  0.00    +0.000 C 
ATOM     25  H   UNL     1      -7.166 -33.591  -5.422  0.00  0.00    +0.000 HD
BRANCH  24  26
ATOM     26  O   UNL     1      -4.916 -34.386  -5.524  0.00  0.00    +0.000 OA
BRANCH  26  27
ATOM     27  C   UNL     1      -4.841 -33.073  -6.093  0.00  0.00    +0.000 C 
BRANCH  27  28
ATOM     28  C   UNL     1      -3.909 -33.088  -7.281  0.00  0.00    +0.000 A 
ATOM     29  C   UNL     1      -3.325 -34.288  -7.710  0.00  0.00    +0.000 A 
ATOM     30  C   UNL     1      -3.566 -31.897  -7.937  0.00  0.00    +0.000 A 
ATOM     31  C   UNL     1      -2.437 -34.299  -8.788  0.00  0.00    +0.000 A 
ATOM     32  C   UNL     1      -2.679 -31.909  -9.014  0.00  0.00    +0.000 A 
ATOM     33  C   UNL     1      -2.115 -33.111  -9.440  0.00  0.00    +0.000 A 
ENDBRANCH  27  28
ENDBRANCH  26  27
ENDBRANCH  24  26
ENDBRANCH  21  23
BRANCH  21  34
ATOM     34  CB  UNL     1      -8.372 -32.532  -3.357  0.00  0.00    +0.000 C 
BRANCH  34  35
ATOM     35  CG  UNL     1      -8.208 -31.854  -1.981  0.00  0.00    +0.000 C 
ATOM     36  CD1 UNL     1      -9.450 -32.006  -1.103  0.00  0.00    +0.000 C 
ATOM     37  CD2 UNL     1      -6.995 -32.450  -1.259  0.00  0.00    +0.000 C 
ENDBRANCH  34  35
ENDBRANCH  21  34
ENDBRANCH   3  21
TORSDOF 15
ENDMDL
MODEL 9
REMARK VINA RESULT:      -4.7      1.500      2.242
REMARK  Name = 
REMARK  21 active torsions:
REMARK  status: ('A' for Active; 'I' for Inactive)
REMARK    1  A    between atoms: O_3  and  C_27
REMARK    2  A    between atoms: O_3  and  C_28
REMARK    3  A    between atoms: N_6  and  CA_9
REMARK    4  A    between atoms: N_7  and  CA_15
REMARK    5  A    between atoms: N_8  and  CA_12
REMARK    6  A    between atoms: CA_9  and  CB_10
REMARK    7  A    between atoms: CA_9  and  C_16
REMARK    8  A    between atoms: CB_10  and  CG_11
REMARK    9  A    between atoms: CG_11  and  CD1_20
REMARK   10  A    between atoms: CG_11  and  CD2_21
REMARK   11  A    between atoms: CA_12  and  CB_13
REMARK   12  A    between atoms: CA_12  and  C_18
REMARK   13  A    between atoms: CB_13  and  CG_14
REMARK   14  A    between atoms: CG_14  and  CD1_22
REMARK   15  A    between atoms: CG_14  and  CD2_23
REMARK   16  A    between atoms: CA_15  and  CB_17
REMARK   17  A    between atoms: CA_15  and  C_26
REMARK   18  A    between atoms: CB_17  and  CG_19
REMARK   19  A    between atoms: CG_19  and  CD1_24
REMARK   20  A    between atoms: CG_19  and  CD2_25
REMARK   21  A    between atoms: C_28  and  C_29
REMARK                            x       y       z     vdW  Elec       q    Type
REMARK                         _______ _______ _______ _____ _____    ______ ____
ROOT
ATOM      1  O   UNL     1      -3.880 -34.015  -5.578  0.00  0.00    +0.000 OA
ATOM      2  N   UNL     1      -6.075 -34.491  -5.978  0.00  0.00    +0.000 N 
ATOM      3  C   UNL     1      -4.797 -34.143  -6.383  0.00  0.00    +0.000 C 
ATOM      4  H   UNL     1      -6.590 -35.036  -6.666  0.00  0.00    +0.000 HD
ENDROOT
BRANCH   2   5
ATOM      5  CA  UNL     1      -6.317 -34.847  -4.580  0.00  0.00    +0.000 C 
BRANCH   5   8
ATOM      6  O   UNL     1      -6.394 -37.103  -5.442  0.00  0.00    +0.000 OA
ATOM      7  N   UNL     1      -5.512 -36.942  -3.406  0.00  0.00    +0.000 N 
ATOM      8  C   UNL     1      -6.070 -36.366  -4.506  0.00  0.00    +0.000 C 
ATOM      9  H   UNL     1      -5.394 -37.941  -3.538  0.00  0.00    +0.000 HD
BRANCH   7  10
ATOM     10  CA  UNL     1      -4.726 -36.326  -2.336  0.00  0.00    +0.000 C 
BRANCH  10  12
ATOM     11  O   UNL     1      -2.739 -36.737  -3.685  0.00  0.00    +0.000 OA
ATOM     12  C   UNL     1      -3.296 -36.073  -2.814  0.00  0.00    +0.000 C 
ENDBRANCH  10  12
BRANCH  10  13
ATOM     13  CB  UNL     1      -4.807 -37.121  -1.024  0.00  0.00    +0.000 C 
BRANCH  13  14
ATOM     14  CG  UNL     1      -6.009 -36.843  -0.095  0.00  0.00    +0.000 C 
ATOM     15  CD1 UNL     1      -6.671 -35.488  -0.341  0.00  0.00    +0.000 C 
ATOM     16  CD2 UNL     1      -7.049 -37.957  -0.264  0.00  0.00    +0.000 C 
ENDBRANCH  13  14
ENDBRANCH  10  13
ENDBRANCH   7  10
ENDBRANCH   5   8
BRANCH   5  17
ATOM     17  CB  UNL     1      -7.770 -34.525  -4.201  0.00  0.00    +0.000 C 
BRANCH  17  18
ATOM     18  CG  UNL     1      -7.925 -33.457  -3.101  0.00  0.00    +0.000 C 
ATOM     19  CD1 UNL     1      -7.723 -32.039  -3.635  0.00  0.00    +0.000 C 
ATOM     20  CD2 UNL     1      -9.316 -33.567  -2.468  0.00  0.00    +0.000 C 
ENDBRANCH  17  18
ENDBRANCH   5  17
ENDBRANCH   2   5
BRANCH   3  21
ATOM     21  CA  UNL     1      -4.617 -34.016  -7.916  0.00  0.00    +0.000 C 
BRANCH  21  23
ATOM     22  O   UNL     1      -3.735 -31.359  -8.275  0.00  0.00    +0.000 OA
ATOM     23  N   UNL     1      -3.242 -33.598  -8.222  0.00  0.00    +0.000 N 
ATOM     24  C   ACE A   0      -2.941 -32.275  -8.410  0.00  0.00    +0.000 C 
ATOM     25  H   UNL     1      -2.644 -34.264  -8.689  0.00  0.00    +0.000 HD
BRANCH  24  26
ATOM     26  O   UNL     1      -1.683 -32.085  -8.877  0.00  0.00    +0.000 OA
BRANCH  26  27
ATOM     27  C   UNL     1      -1.466 -32.468 -10.241  0.00  0.00    +0.000 C 
BRANCH  27  28
ATOM     28  C   UNL     1      -0.319 -33.446 -10.316  0.00  0.00    +0.000 A 
ATOM     29  C   UNL     1      -0.524 -34.805 -10.042  0.00  0.00    +0.000 A 
ATOM     30  C   UNL     1       0.982 -33.005 -10.602  0.00  0.00    +0.000 A 
ATOM     31  C   UNL     1       0.542 -35.707 -10.080  0.00  0.00    +0.000 A 
ATOM     32  C   UNL     1       2.047 -33.906 -10.639  0.00  0.00    +0.000 A 
ATOM     33  C   UNL     1       1.826 -35.257 -10.379  0.00  0.00    +0.000 A 
ENDBRANCH  27  28
ENDBRANCH  26  27
ENDBRANCH  24  26
ENDBRANCH  21  23
BRANCH  21  34
ATOM     34  CB  UNL     1      -4.930 -35.342  -8.632  0.00  0.00    +0.000 C 
BRANCH  34  35
ATOM     35  CG  UNL     1      -5.276 -35.235 -10.132  0.00  0.00    +0.000 C 
ATOM     36  CD1 UNL     1      -5.797 -33.849 -10.514  0.00  0.00    +0.000 C 
ATOM     37  CD2 UNL     1      -4.034 -35.563 -10.968  0.00  0.00    +0.000 C 
ENDBRANCH  34  35
ENDBRANCH  21  34
ENDBRANCH   3  21
TORSDOF 15
ENDMDL
