MODEL 1
REMARK VINA RESULT:      -5.1      0.000      0.000
REMARK  Name = Monobenzone.pdbqt.pdb
REMARK  4 active torsions:
REMARK  status: ('A' for Active; 'I' for Inactive)
REMARK    1  A    between atoms: C_1  and  O_7
REMARK    2  A    between atoms: C_6  and  O_15
REMARK    3  A    between atoms: O_7  and  C_8
REMARK    4  A    between atoms: C_8  and  C_9
REMARK                            x       y       z     vdW  Elec       q    Type
REMARK                         _______ _______ _______ _____ _____    ______ ____
ROOT
ATOM      1  C   UNL     1      -2.186 -34.557  -9.145  0.00  0.00    +0.000 A 
ATOM      2  C   UNL     1      -1.979 -33.345  -9.807  0.00  0.00    +0.000 A 
ATOM      3  C   UNL     1      -2.871 -34.573  -7.929  0.00  0.00    +0.000 A 
ATOM      4  C   UNL     1      -2.454 -32.156  -9.259  0.00  0.00    +0.000 A 
ATOM      5  C   UNL     1      -3.347 -33.387  -7.376  0.00  0.00    +0.000 A 
ATOM      6  C   UNL     1      -3.135 -32.187  -8.047  0.00  0.00    +0.000 A 
ENDROOT
BRANCH   6   7
ATOM      7  O   UNL     1      -3.611 -31.038  -7.487  0.00  0.00    +0.000 OA
ATOM      8  H   UNL     1      -2.912 -30.363  -7.534  0.00  0.00    +0.000 HD
ENDBRANCH   6   7
BRANCH   1   9
ATOM      9  O   UNL     1      -1.756 -35.777  -9.605  0.00  0.00    +0.000 OA
BRANCH   9  10
ATOM     10  C   UNL     1      -0.448 -35.861  -9.831  0.00  0.00    +0.000 C 
BRANCH  10  11
ATOM     11  C   UNL     1       0.953 -35.942 -10.088  0.00  0.00    +0.000 A 
ATOM     12  C   UNL     1       1.611 -37.163  -9.959  0.00  0.00    +0.000 A 
ATOM     13  C   UNL     1       2.981 -37.241 -10.205  0.00  0.00    +0.000 A 
ATOM     14  C   UNL     1       3.687 -36.100 -10.577  0.00  0.00    +0.000 A 
ATOM     15  C   UNL     1       3.026 -34.880 -10.706  0.00  0.00    +0.000 A 
ATOM     16  C   UNL     1       1.658 -34.800 -10.461  0.00  0.00    +0.000 A 
ENDBRANCH  10  11
ENDBRANCH   9  10
ENDBRANCH   1   9
TORSDOF 4
ENDMDL
MODEL 2
REMARK VINA RESULT:      -4.5      5.343      9.553
REMARK  Name = Monobenzone.pdbqt.pdb
REMARK  4 active torsions:
REMARK  status: ('A' for Active; 'I' for Inactive)
REMARK    1  A    between atoms: C_1  and  O_7
REMARK    2  A    between atoms: C_6  and  O_15
REMARK    3  A    between atoms: O_7  and  C_8
REMARK    4  A    between atoms: C_8  and  C_9
REMARK                            x       y       z     vdW  Elec       q    Type
REMARK                         _______ _______ _______ _____ _____    ______ ____
ROOT
ATOM      1  C   UNL     1      -5.892 -33.968  -5.992  0.00  0.00    +0.000 A 
ATOM      2  C   UNL     1      -6.039 -33.579  -7.326  0.00  0.00    +0.000 A 
ATOM      3  C   UNL     1      -4.677 -33.752  -5.340  0.00  0.00    +0.000 A 
ATOM      4  C   UNL     1      -4.981 -32.978  -8.003  0.00  0.00    +0.000 A 
ATOM      5  C   UNL     1      -3.615 -33.152  -6.012  0.00  0.00    +0.000 A 
ATOM      6  C   UNL     1      -3.777 -32.769  -7.340  0.00  0.00    +0.000 A 
ENDROOT
BRANCH   6   7
ATOM      7  O   UNL     1      -2.723 -32.183  -7.978  0.00  0.00    +0.000 OA
ATOM      8  H   UNL     1      -2.068 -32.872  -8.182  0.00  0.00    +0.000 HD
ENDBRANCH   6   7
BRANCH   1   9
ATOM      9  O   UNL     1      -6.875 -34.565  -5.244  0.00  0.00    +0.000 OA
BRANCH   9  10
ATOM     10  C   UNL     1      -7.223 -33.900  -4.145  0.00  0.00    +0.000 C 
BRANCH  10  11
ATOM     11  C   UNL     1      -7.595 -33.174  -2.975  0.00  0.00    +0.000 A 
ATOM     12  C   UNL     1      -6.696 -33.054  -1.918  0.00  0.00    +0.000 A 
ATOM     13  C   UNL     1      -7.062 -32.348  -0.774  0.00  0.00    +0.000 A 
ATOM     14  C   UNL     1      -8.324 -31.766  -0.689  0.00  0.00    +0.000 A 
ATOM     15  C   UNL     1      -9.221 -31.887  -1.747  0.00  0.00    +0.000 A 
ATOM     16  C   UNL     1      -8.858 -32.592  -2.892  0.00  0.00    +0.000 A 
ENDBRANCH  10  11
ENDBRANCH   9  10
ENDBRANCH   1   9
TORSDOF 4
ENDMDL
MODEL 3
REMARK VINA RESULT:      -4.4      6.754     10.277
REMARK  Name = Monobenzone.pdbqt.pdb
REMARK  4 active torsions:
REMARK  status: ('A' for Active; 'I' for Inactive)
REMARK    1  A    between atoms: C_1  and  O_7
REMARK    2  A    between atoms: C_6  and  O_15
REMARK    3  A    between atoms: O_7  and  C_8
REMARK    4  A    between atoms: C_8  and  C_9
REMARK                            x       y       z     vdW  Elec       q    Type
REMARK                         _______ _______ _______ _____ _____    ______ ____
ROOT
ATOM      1  C   UNL     1      -5.733 -34.531  -4.761  0.00  0.00    +0.000 A 
ATOM      2  C   UNL     1      -6.163 -35.699  -5.395  0.00  0.00    +0.000 A 
ATOM      3  C   UNL     1      -5.551 -33.366  -5.507  0.00  0.00    +0.000 A 
ATOM      4  C   UNL     1      -6.412 -35.703  -6.765  0.00  0.00    +0.000 A 
ATOM      5  C   UNL     1      -5.797 -33.364  -6.877  0.00  0.00    +0.000 A 
ATOM      6  C   UNL     1      -6.226 -34.534  -7.496  0.00  0.00    +0.000 A 
ENDROOT
BRANCH   6   7
ATOM      7  O   UNL     1      -6.462 -34.509  -8.839  0.00  0.00    +0.000 OA
ATOM      8  H   UNL     1      -6.450 -35.424  -9.169  0.00  0.00    +0.000 HD
ENDBRANCH   6   7
BRANCH   1   9
ATOM      9  O   UNL     1      -5.463 -34.430  -3.418  0.00  0.00    +0.000 OA
BRANCH   9  10
ATOM     10  C   UNL     1      -6.319 -33.677  -2.732  0.00  0.00    +0.000 C 
BRANCH  10  11
ATOM     11  C   UNL     1      -7.247 -32.882  -1.997  0.00  0.00    +0.000 A 
ATOM     12  C   UNL     1      -6.879 -32.348  -0.764  0.00  0.00    +0.000 A 
ATOM     13  C   UNL     1      -7.788 -31.575  -0.044  0.00  0.00    +0.000 A 
ATOM     14  C   UNL     1      -9.061 -31.339  -0.556  0.00  0.00    +0.000 A 
ATOM     15  C   UNL     1      -9.427 -31.874  -1.790  0.00  0.00    +0.000 A 
ATOM     16  C   UNL     1      -8.520 -32.646  -2.511  0.00  0.00    +0.000 A 
ENDBRANCH  10  11
ENDBRANCH   9  10
ENDBRANCH   1   9
TORSDOF 4
ENDMDL
MODEL 4
REMARK VINA RESULT:      -4.4      2.026      6.432
REMARK  Name = Monobenzone.pdbqt.pdb
REMARK  4 active torsions:
REMARK  status: ('A' for Active; 'I' for Inactive)
REMARK    1  A    between atoms: C_1  and  O_7
REMARK    2  A    between atoms: C_6  and  O_15
REMARK    3  A    between atoms: O_7  and  C_8
REMARK    4  A    between atoms: C_8  and  C_9
REMARK                            x       y       z     vdW  Elec       q    Type
REMARK                         _______ _______ _______ _____ _____    ______ ____
ROOT
ATOM      1  C   UNL     1       0.713 -33.874 -10.573  0.00  0.00    +0.000 A 
ATOM      2  C   UNL     1       0.188 -35.119 -10.218  0.00  0.00    +0.000 A 
ATOM      3  C   UNL     1       2.087 -33.737 -10.779  0.00  0.00    +0.000 A 
ATOM      4  C   UNL     1       1.028 -36.219 -10.071  0.00  0.00    +0.000 A 
ATOM      5  C   UNL     1       2.932 -34.834 -10.632  0.00  0.00    +0.000 A 
ATOM      6  C   UNL     1       2.395 -36.067 -10.280  0.00  0.00    +0.000 A 
ENDROOT
BRANCH   6   7
ATOM      7  O   UNL     1       3.242 -37.128 -10.142  0.00  0.00    +0.000 OA
ATOM      8  H   UNL     1       3.462 -37.224  -9.200  0.00  0.00    +0.000 HD
ENDBRANCH   6   7
BRANCH   1   9
ATOM      9  O   UNL     1      -0.034 -32.735 -10.741  0.00  0.00    +0.000 OA
BRANCH   9  10
ATOM     10  C   UNL     1      -1.229 -32.758 -10.156  0.00  0.00    +0.000 C 
BRANCH  10  11
ATOM     11  C   UNL     1      -2.509 -32.800  -9.528  0.00  0.00    +0.000 A 
ATOM     12  C   UNL     1      -3.439 -33.763  -9.913  0.00  0.00    +0.000 A 
ATOM     13  C   UNL     1      -4.691 -33.799  -9.303  0.00  0.00    +0.000 A 
ATOM     14  C   UNL     1      -5.009 -32.875  -8.311  0.00  0.00    +0.000 A 
ATOM     15  C   UNL     1      -4.077 -31.914  -7.927  0.00  0.00    +0.000 A 
ATOM     16  C   UNL     1      -2.825 -31.875  -8.536  0.00  0.00    +0.000 A 
ENDBRANCH  10  11
ENDBRANCH   9  10
ENDBRANCH   1   9
TORSDOF 4
ENDMDL
MODEL 5
REMARK VINA RESULT:      -4.2     22.043     24.401
REMARK  Name = Monobenzone.pdbqt.pdb
REMARK  4 active torsions:
REMARK  status: ('A' for Active; 'I' for Inactive)
REMARK    1  A    between atoms: C_1  and  O_7
REMARK    2  A    between atoms: C_6  and  O_15
REMARK    3  A    between atoms: O_7  and  C_8
REMARK    4  A    between atoms: C_8  and  C_9
REMARK                            x       y       z     vdW  Elec       q    Type
REMARK                         _______ _______ _______ _____ _____    ______ ____
ROOT
ATOM      1  C   UNL     1     -16.631 -16.544  -4.777  0.00  0.00    +0.000 A 
ATOM      2  C   UNL     1     -15.696 -15.515  -4.644  0.00  0.00    +0.000 A 
ATOM      3  C   UNL     1     -17.723 -16.379  -5.630  0.00  0.00    +0.000 A 
ATOM      4  C   UNL     1     -15.850 -14.329  -5.357  0.00  0.00    +0.000 A 
ATOM      5  C   UNL     1     -17.883 -15.195  -6.346  0.00  0.00    +0.000 A 
ATOM      6  C   UNL     1     -16.944 -14.179  -6.204  0.00  0.00    +0.000 A 
ENDROOT
BRANCH   6   7
ATOM      7  O   UNL     1     -17.120 -13.028  -6.915  0.00  0.00    +0.000 OA
ATOM      8  H   UNL     1     -18.070 -12.817  -6.923  0.00  0.00    +0.000 HD
ENDBRANCH   6   7
BRANCH   1   9
ATOM      9  O   UNL     1     -16.563 -17.746  -4.117  0.00  0.00    +0.000 OA
BRANCH   9  10
ATOM     10  C   UNL     1     -15.659 -17.798  -3.142  0.00  0.00    +0.000 C 
BRANCH  10  11
ATOM     11  C   UNL     1     -14.685 -17.868  -2.103  0.00  0.00    +0.000 A 
ATOM     12  C   UNL     1     -13.671 -18.821  -2.167  0.00  0.00    +0.000 A 
ATOM     13  C   UNL     1     -12.723 -18.893  -1.148  0.00  0.00    +0.000 A 
ATOM     14  C   UNL     1     -12.790 -18.013  -0.071  0.00  0.00    +0.000 A 
ATOM     15  C   UNL     1     -13.804 -17.060  -0.011  0.00  0.00    +0.000 A 
ATOM     16  C   UNL     1     -14.753 -16.986  -1.027  0.00  0.00    +0.000 A 
ENDBRANCH  10  11
ENDBRANCH   9  10
ENDBRANCH   1   9
TORSDOF 4
ENDMDL
MODEL 6
REMARK VINA RESULT:      -4.1     19.847     20.711
REMARK  Name = Monobenzone.pdbqt.pdb
REMARK  4 active torsions:
REMARK  status: ('A' for Active; 'I' for Inactive)
REMARK    1  A    between atoms: C_1  and  O_7
REMARK    2  A    between atoms: C_6  and  O_15
REMARK    3  A    between atoms: O_7  and  C_8
REMARK    4  A    between atoms: C_8  and  C_9
REMARK                            x       y       z     vdW  Elec       q    Type
REMARK                         _______ _______ _______ _____ _____    ______ ____
ROOT
ATOM      1  C   UNL     1      -3.176 -15.317  -3.466  0.00  0.00    +0.000 A 
ATOM      2  C   UNL     1      -2.668 -14.226  -2.757  0.00  0.00    +0.000 A 
ATOM      3  C   UNL     1      -3.697 -16.410  -2.772  0.00  0.00    +0.000 A 
ATOM      4  C   UNL     1      -2.681 -14.225  -1.365  0.00  0.00    +0.000 A 
ATOM      5  C   UNL     1      -3.712 -16.416  -1.379  0.00  0.00    +0.000 A 
ATOM      6  C   UNL     1      -3.204 -15.322  -0.687  0.00  0.00    +0.000 A 
ENDROOT
BRANCH   6   7
ATOM      7  O   UNL     1      -3.230 -15.349   0.677  0.00  0.00    +0.000 OA
ATOM      8  H   UNL     1      -2.519 -14.773   1.008  0.00  0.00    +0.000 HD
ENDBRANCH   6   7
BRANCH   1   9
ATOM      9  O   UNL     1      -3.206 -15.408  -4.835  0.00  0.00    +0.000 OA
BRANCH   9  10
ATOM     10  C   UNL     1      -2.102 -14.986  -5.448  0.00  0.00    +0.000 C 
BRANCH  10  11
ATOM     11  C   UNL     1      -0.911 -14.547  -6.098  0.00  0.00    +0.000 A 
ATOM     12  C   UNL     1      -0.998 -13.755  -7.241  0.00  0.00    +0.000 A 
ATOM     13  C   UNL     1       0.166 -13.330  -7.879  0.00  0.00    +0.000 A 
ATOM     14  C   UNL     1       1.411 -13.697  -7.374  0.00  0.00    +0.000 A 
ATOM     15  C   UNL     1       1.494 -14.489  -6.230  0.00  0.00    +0.000 A 
ATOM     16  C   UNL     1       0.333 -14.914  -5.591  0.00  0.00    +0.000 A 
ENDBRANCH  10  11
ENDBRANCH   9  10
ENDBRANCH   1   9
TORSDOF 4
ENDMDL
MODEL 7
REMARK VINA RESULT:      -4.1      3.140      4.179
REMARK  Name = Monobenzone.pdbqt.pdb
REMARK  4 active torsions:
REMARK  status: ('A' for Active; 'I' for Inactive)
REMARK    1  A    between atoms: C_1  and  O_7
REMARK    2  A    between atoms: C_6  and  O_15
REMARK    3  A    between atoms: O_7  and  C_8
REMARK    4  A    between atoms: C_8  and  C_9
REMARK                            x       y       z     vdW  Elec       q    Type
REMARK                         _______ _______ _______ _____ _____    ______ ____
ROOT
ATOM      1  C   UNL     1      -0.212 -33.079 -10.518  0.00  0.00    +0.000 A 
ATOM      2  C   UNL     1      -0.227 -34.445 -10.227  0.00  0.00    +0.000 A 
ATOM      3  C   UNL     1      -1.272 -32.272 -10.101  0.00  0.00    +0.000 A 
ATOM      4  C   UNL     1      -1.292 -35.001  -9.524  0.00  0.00    +0.000 A 
ATOM      5  C   UNL     1      -2.340 -32.823  -9.399  0.00  0.00    +0.000 A 
ATOM      6  C   UNL     1      -2.341 -34.184  -9.115  0.00  0.00    +0.000 A 
ENDROOT
BRANCH   6   7
ATOM      7  O   UNL     1      -3.398 -34.702  -8.425  0.00  0.00    +0.000 OA
ATOM      8  H   UNL     1      -3.294 -35.669  -8.386  0.00  0.00    +0.000 HD
ENDBRANCH   6   7
BRANCH   1   9
ATOM      9  O   UNL     1       0.792 -32.442 -11.203  0.00  0.00    +0.000 OA
BRANCH   9  10
ATOM     10  C   UNL     1       1.864 -32.142 -10.474  0.00  0.00    +0.000 C 
BRANCH  10  11
ATOM     11  C   UNL     1       3.006 -31.827  -9.679  0.00  0.00    +0.000 A 
ATOM     12  C   UNL     1       4.208 -32.495  -9.898  0.00  0.00    +0.000 A 
ATOM     13  C   UNL     1       5.322 -32.190  -9.117  0.00  0.00    +0.000 A 
ATOM     14  C   UNL     1       5.230 -31.220  -8.123  0.00  0.00    +0.000 A 
ATOM     15  C   UNL     1       4.027 -30.552  -7.907  0.00  0.00    +0.000 A 
ATOM     16  C   UNL     1       2.913 -30.856  -8.685  0.00  0.00    +0.000 A 
ENDBRANCH  10  11
ENDBRANCH   9  10
ENDBRANCH   1   9
TORSDOF 4
ENDMDL
MODEL 8
REMARK VINA RESULT:      -4.1     12.066     14.407
REMARK  Name = Monobenzone.pdbqt.pdb
REMARK  4 active torsions:
REMARK  status: ('A' for Active; 'I' for Inactive)
REMARK    1  A    between atoms: C_1  and  O_7
REMARK    2  A    between atoms: C_6  and  O_15
REMARK    3  A    between atoms: O_7  and  C_8
REMARK    4  A    between atoms: C_8  and  C_9
REMARK                            x       y       z     vdW  Elec       q    Type
REMARK                         _______ _______ _______ _____ _____    ______ ____
ROOT
ATOM      1  C   UNL     1      -9.683 -25.417 -18.106  0.00  0.00    +0.000 A 
ATOM      2  C   UNL     1     -10.648 -24.476 -18.473  0.00  0.00    +0.000 A 
ATOM      3  C   UNL     1      -9.955 -26.778 -18.251  0.00  0.00    +0.000 A 
ATOM      4  C   UNL     1     -11.875 -24.891 -18.983  0.00  0.00    +0.000 A 
ATOM      5  C   UNL     1     -11.181 -27.199 -18.760  0.00  0.00    +0.000 A 
ATOM      6  C   UNL     1     -12.132 -26.251 -19.123  0.00  0.00    +0.000 A 
ENDROOT
BRANCH   6   7
ATOM      7  O   UNL     1     -13.326 -26.686 -19.620  0.00  0.00    +0.000 OA
ATOM      8  H   UNL     1     -13.172 -27.520 -20.096  0.00  0.00    +0.000 HD
ENDBRANCH   6   7
BRANCH   1   9
ATOM      9  O   UNL     1      -8.448 -25.105 -17.595  0.00  0.00    +0.000 OA
BRANCH   9  10
ATOM     10  C   UNL     1      -7.972 -25.978 -16.711  0.00  0.00    +0.000 C 
BRANCH  10  11
ATOM     11  C   UNL     1      -7.448 -26.904 -15.761  0.00  0.00    +0.000 A 
ATOM     12  C   UNL     1      -8.306 -27.538 -14.866  0.00  0.00    +0.000 A 
ATOM     13  C   UNL     1      -7.794 -28.439 -13.934  0.00  0.00    +0.000 A 
ATOM     14  C   UNL     1      -6.427 -28.703 -13.900  0.00  0.00    +0.000 A 
ATOM     15  C   UNL     1      -5.571 -28.067 -14.797  0.00  0.00    +0.000 A 
ATOM     16  C   UNL     1      -6.081 -27.167 -15.728  0.00  0.00    +0.000 A 
ENDBRANCH  10  11
ENDBRANCH   9  10
ENDBRANCH   1   9
TORSDOF 4
ENDMDL
MODEL 9
REMARK VINA RESULT:      -4.0     11.536     13.215
REMARK  Name = Monobenzone.pdbqt.pdb
REMARK  4 active torsions:
REMARK  status: ('A' for Active; 'I' for Inactive)
REMARK    1  A    between atoms: C_1  and  O_7
REMARK    2  A    between atoms: C_6  and  O_15
REMARK    3  A    between atoms: O_7  and  C_8
REMARK    4  A    between atoms: C_8  and  C_9
REMARK                            x       y       z     vdW  Elec       q    Type
REMARK                         _______ _______ _______ _____ _____    ______ ____
ROOT
ATOM      1  C   UNL     1       5.153 -27.614  -3.298  0.00  0.00    +0.000 A 
ATOM      2  C   UNL     1       4.736 -27.635  -1.964  0.00  0.00    +0.000 A 
ATOM      3  C   UNL     1       5.229 -28.808  -4.017  0.00  0.00    +0.000 A 
ATOM      4  C   UNL     1       4.397 -28.840  -1.355  0.00  0.00    +0.000 A 
ATOM      5  C   UNL     1       4.892 -30.015  -3.412  0.00  0.00    +0.000 A 
ATOM      6  C   UNL     1       4.477 -30.022  -2.084  0.00  0.00    +0.000 A 
ENDROOT
BRANCH   6   7
ATOM      7  O   UNL     1       4.151 -31.216  -1.512  0.00  0.00    +0.000 OA
ATOM      8  H   UNL     1       3.438 -31.621  -2.036  0.00  0.00    +0.000 HD
ENDBRANCH   6   7
BRANCH   1   9
ATOM      9  O   UNL     1       5.507 -26.479  -3.983  0.00  0.00    +0.000 OA
BRANCH   9  10
ATOM     10  C   UNL     1       5.063 -25.343  -3.450  0.00  0.00    +0.000 C 
BRANCH  10  11
ATOM     11  C   UNL     1       4.593 -24.118  -2.892  0.00  0.00    +0.000 A 
ATOM     12  C   UNL     1       4.587 -22.960  -3.666  0.00  0.00    +0.000 A 
ATOM     13  C   UNL     1       4.133 -21.762  -3.119  0.00  0.00    +0.000 A 
ATOM     14  C   UNL     1       3.686 -21.724  -1.800  0.00  0.00    +0.000 A 
ATOM     15  C   UNL     1       3.693 -22.884  -1.028  0.00  0.00    +0.000 A 
ATOM     16  C   UNL     1       4.146 -24.082  -1.573  0.00  0.00    +0.000 A 
ENDBRANCH  10  11
ENDBRANCH   9  10
ENDBRANCH   1   9
TORSDOF 4
ENDMDL
