MODEL 1
REMARK VINA RESULT:      -6.3      0.000      0.000
REMARK  Name = OTSSP167.pdbqt.pdb
REMARK  7 active torsions:
REMARK  status: ('A' for Active; 'I' for Inactive)
REMARK    1  A    between atoms: C_5  and  N_19
REMARK    2  A    between atoms: C_7  and  C_31
REMARK    3  A    between atoms: C_11  and  C_13
REMARK    4  A    between atoms: C_18  and  O_34
REMARK    5  A    between atoms: N_19  and  C_21
REMARK    6  A    between atoms: C_24  and  C_27
REMARK    7  A    between atoms: C_27  and  N_28
REMARK                            x       y       z     vdW  Elec       q    Type
REMARK                         _______ _______ _______ _____ _____    ______ ____
ROOT
ATOM      1  N   UNL     1      -2.259 -34.205  -8.862  0.00  0.00    +0.000 NA
ATOM      2  N   UNL     1      -5.864 -34.416  -9.423  0.00  0.00    +0.000 NA
ATOM      3  C   UNL     1      -4.096 -33.919  -7.289  0.00  0.00    +0.000 A 
ATOM      4  C   UNL     1      -3.588 -34.168  -8.592  0.00  0.00    +0.000 A 
ATOM      5  C   UNL     1      -5.493 -33.933  -7.103  0.00  0.00    +0.000 A 
ATOM      6  C   UNL     1      -4.534 -34.413  -9.610  0.00  0.00    +0.000 A 
ATOM      7  C   UNL     1      -6.317 -34.180  -8.178  0.00  0.00    +0.000 A 
ATOM      8  C   UNL     1      -4.050 -34.668 -10.880  0.00  0.00    +0.000 A 
ATOM      9  C   UNL     1      -1.812 -34.448 -10.119  0.00  0.00    +0.000 A 
ATOM     10  C   UNL     1      -2.691 -34.688 -11.157  0.00  0.00    +0.000 A 
ENDROOT
BRANCH   9  13
ATOM     11 CL   UNL     1       2.641 -37.068 -10.138  0.00  0.00    +0.000 Cl
ATOM     12 CL   UNL     1       2.457 -31.710 -11.114  0.00  0.00    +0.000 Cl
ATOM     13  C   UNL     1      -0.359 -34.424 -10.303  0.00  0.00    +0.000 A 
ATOM     14  C   UNL     1       0.327 -33.239 -10.594  0.00  0.00    +0.000 A 
ATOM     15  C   UNL     1       0.400 -35.595 -10.178  0.00  0.00    +0.000 A 
ATOM     16  C   UNL     1       1.784 -35.587 -10.331  0.00  0.00    +0.000 A 
ATOM     17  C   UNL     1       1.713 -33.221 -10.756  0.00  0.00    +0.000 A 
ATOM     18  C   UNL     1       2.450 -34.398 -10.624  0.00  0.00    +0.000 A 
BRANCH  18  19
ATOM     19  O   UNL     1       3.811 -34.373 -10.780  0.00  0.00    +0.000 OA
ATOM     20  H   UNL     1       4.010 -34.091 -11.692  0.00  0.00    +0.000 HD
ENDBRANCH  18  19
ENDBRANCH   9  13
BRANCH   5  21
ATOM     21  C   UNL     1      -6.127 -33.736  -5.801  0.00  0.00    +0.000 C 
ATOM     22  O   UNL     1      -6.217 -32.667  -5.222  0.00  0.00    +0.000 OA
ATOM     23  C   UNL     1      -6.711 -34.845  -4.979  0.00  0.00    +0.000 C 
ENDBRANCH   5  21
BRANCH   3  24
ATOM     24  N   UNL     1      -3.261 -33.554  -6.184  0.00  0.00    +0.000 N 
ATOM     25  H   UNL     1      -3.435 -32.616  -5.812  0.00  0.00    +0.000 HD
BRANCH  24  26
ATOM     26  C   UNL     1      -2.635 -34.383  -5.295  0.00  0.00    +0.000 A 
ATOM     27  C   UNL     1      -2.595 -35.789  -5.609  0.00  0.00    +0.000 A 
ATOM     28  C   UNL     1      -2.802 -36.955  -4.608  0.00  0.00    +0.000 A 
ATOM     29  C   UNL     1      -3.077 -36.796  -3.200  0.00  0.00    +0.000 A 
ATOM     30  C   UNL     1      -3.143 -35.390  -2.889  0.00  0.00    +0.000 A 
ATOM     31  C   UNL     1      -2.938 -34.229  -3.893  0.00  0.00    +0.000 A 
BRANCH  29  32
ATOM     32  C   UNL     1      -3.132 -37.843  -2.254  0.00  0.00    +0.000 C 
BRANCH  32  33
ATOM     33  N   UNL     1      -3.173 -38.911  -1.270  0.00  0.00    +0.000 NA
ATOM     34  C   UNL     1      -3.372 -38.295   0.032  0.00  0.00    +0.000 C 
ATOM     35  C   UNL     1      -1.860 -39.533  -1.251  0.00  0.00    +0.000 C 
ENDBRANCH  32  33
ENDBRANCH  29  32
ENDBRANCH  24  26
ENDBRANCH   3  24
TORSDOF 7
ENDMDL
MODEL 2
REMARK VINA RESULT:      -6.1      3.798      7.554
REMARK  Name = OTSSP167.pdbqt.pdb
REMARK  7 active torsions:
REMARK  status: ('A' for Active; 'I' for Inactive)
REMARK    1  A    between atoms: C_5  and  N_19
REMARK    2  A    between atoms: C_7  and  C_31
REMARK    3  A    between atoms: C_11  and  C_13
REMARK    4  A    between atoms: C_18  and  O_34
REMARK    5  A    between atoms: N_19  and  C_21
REMARK    6  A    between atoms: C_24  and  C_27
REMARK    7  A    between atoms: C_27  and  N_28
REMARK                            x       y       z     vdW  Elec       q    Type
REMARK                         _______ _______ _______ _____ _____    ______ ____
ROOT
ATOM      1  N   UNL     1      -3.077 -35.687  -4.401  0.00  0.00    +0.000 NA
ATOM      2  N   UNL     1      -6.172 -33.788  -4.804  0.00  0.00    +0.000 NA
ATOM      3  C   UNL     1      -3.761 -34.196  -6.200  0.00  0.00    +0.000 A 
ATOM      4  C   UNL     1      -3.993 -34.862  -4.967  0.00  0.00    +0.000 A 
ATOM      5  C   UNL     1      -4.763 -33.334  -6.690  0.00  0.00    +0.000 A 
ATOM      6  C   UNL     1      -5.222 -34.606  -4.323  0.00  0.00    +0.000 A 
ATOM      7  C   UNL     1      -5.926 -33.168  -5.972  0.00  0.00    +0.000 A 
ATOM      8  C   UNL     1      -5.452 -35.242  -3.116  0.00  0.00    +0.000 A 
ATOM      9  C   UNL     1      -3.333 -36.304  -3.221  0.00  0.00    +0.000 A 
ATOM     10  C   UNL     1      -4.521 -36.098  -2.548  0.00  0.00    +0.000 A 
ENDROOT
BRANCH   9  13
ATOM     11 CL   UNL     1       0.620 -39.449  -4.311  0.00  0.00    +0.000 Cl
ATOM     12 CL   UNL     1      -1.067 -38.623   0.805  0.00  0.00    +0.000 Cl
ATOM     13  C   UNL     1      -2.289 -37.204  -2.724  0.00  0.00    +0.000 A 
ATOM     14  C   UNL     1      -2.145 -37.483  -1.359  0.00  0.00    +0.000 A 
ATOM     15  C   UNL     1      -1.401 -37.831  -3.607  0.00  0.00    +0.000 A 
ATOM     16  C   UNL     1      -0.414 -38.703  -3.153  0.00  0.00    +0.000 A 
ATOM     17  C   UNL     1      -1.157 -38.351  -0.893  0.00  0.00    +0.000 A 
ATOM     18  C   UNL     1      -0.285 -38.967  -1.791  0.00  0.00    +0.000 A 
BRANCH  18  19
ATOM     19  O   UNL     1       0.681 -39.821  -1.328  0.00  0.00    +0.000 OA
ATOM     20  H   UNL     1       0.726 -40.588  -1.929  0.00  0.00    +0.000 HD
ENDBRANCH  18  19
ENDBRANCH   9  13
BRANCH   5  21
ATOM     21  C   UNL     1      -4.617 -32.561  -7.922  0.00  0.00    +0.000 C 
ATOM     22  O   UNL     1      -4.203 -31.416  -7.984  0.00  0.00    +0.000 OA
ATOM     23  C   UNL     1      -5.009 -33.066  -9.277  0.00  0.00    +0.000 C 
ENDBRANCH   5  21
BRANCH   3  24
ATOM     24  N   UNL     1      -2.608 -34.439  -7.013  0.00  0.00    +0.000 N 
ATOM     25  H   UNL     1      -1.717 -34.204  -6.566  0.00  0.00    +0.000 HD
BRANCH  24  26
ATOM     26  C   UNL     1      -2.482 -35.326  -8.046  0.00  0.00    +0.000 A 
ATOM     27  C   UNL     1      -2.290 -36.714  -7.714  0.00  0.00    +0.000 A 
ATOM     28  C   UNL     1      -1.325 -37.699  -8.422  0.00  0.00    +0.000 A 
ATOM     29  C   UNL     1      -0.460 -37.357  -9.526  0.00  0.00    +0.000 A 
ATOM     30  C   UNL     1      -0.630 -35.962  -9.844  0.00  0.00    +0.000 A 
ATOM     31  C   UNL     1      -1.595 -34.982  -9.131  0.00  0.00    +0.000 A 
BRANCH  29  32
ATOM     32  C   UNL     1       0.321 -38.271 -10.268  0.00  0.00    +0.000 C 
BRANCH  32  33
ATOM     33  N   UNL     1       1.135 -39.212 -11.016  0.00  0.00    +0.000 NA
ATOM     34  C   UNL     1       1.533 -38.557 -12.251  0.00  0.00    +0.000 C 
ATOM     35  C   UNL     1       0.281 -40.329 -11.383  0.00  0.00    +0.000 C 
ENDBRANCH  32  33
ENDBRANCH  29  32
ENDBRANCH  24  26
ENDBRANCH   3  24
TORSDOF 7
ENDMDL
MODEL 3
REMARK VINA RESULT:      -6.0     17.524     19.089
REMARK  Name = OTSSP167.pdbqt.pdb
REMARK  7 active torsions:
REMARK  status: ('A' for Active; 'I' for Inactive)
REMARK    1  A    between atoms: C_5  and  N_19
REMARK    2  A    between atoms: C_7  and  C_31
REMARK    3  A    between atoms: C_11  and  C_13
REMARK    4  A    between atoms: C_18  and  O_34
REMARK    5  A    between atoms: N_19  and  C_21
REMARK    6  A    between atoms: C_24  and  C_27
REMARK    7  A    between atoms: C_27  and  N_28
REMARK                            x       y       z     vdW  Elec       q    Type
REMARK                         _______ _______ _______ _____ _____    ______ ____
ROOT
ATOM      1  N   UNL     1      -2.282 -16.268  -1.882  0.00  0.00    +0.000 NA
ATOM      2  N   UNL     1      -4.970 -15.612   0.505  0.00  0.00    +0.000 NA
ATOM      3  C   UNL     1      -3.122 -17.658  -0.068  0.00  0.00    +0.000 A 
ATOM      4  C   UNL     1      -3.127 -16.466  -0.839  0.00  0.00    +0.000 A 
ATOM      5  C   UNL     1      -4.062 -17.782   0.976  0.00  0.00    +0.000 A 
ATOM      6  C   UNL     1      -4.084 -15.487  -0.496  0.00  0.00    +0.000 A 
ATOM      7  C   UNL     1      -4.945 -16.753   1.218  0.00  0.00    +0.000 A 
ATOM      8  C   UNL     1      -4.105 -14.326  -1.248  0.00  0.00    +0.000 A 
ATOM      9  C   UNL     1      -2.318 -15.117  -2.596  0.00  0.00    +0.000 A 
ATOM     10  C   UNL     1      -3.228 -14.120  -2.303  0.00  0.00    +0.000 A 
ENDROOT
BRANCH   9  13
ATOM     11 CL   UNL     1       2.604 -15.578  -4.098  0.00  0.00    +0.000 Cl
ATOM     12 CL   UNL     1      -1.288 -13.860  -7.503  0.00  0.00    +0.000 Cl
ATOM     13  C   UNL     1      -1.333 -14.995  -3.674  0.00  0.00    +0.000 A 
ATOM     14  C   UNL     1      -1.689 -14.545  -4.951  0.00  0.00    +0.000 A 
ATOM     15  C   UNL     1       0.014 -15.314  -3.454  0.00  0.00    +0.000 A 
ATOM     16  C   UNL     1       0.967 -15.187  -4.462  0.00  0.00    +0.000 A 
ATOM     17  C   UNL     1      -0.743 -14.420  -5.969  0.00  0.00    +0.000 A 
ATOM     18  C   UNL     1       0.593 -14.740  -5.728  0.00  0.00    +0.000 A 
BRANCH  18  19
ATOM     19  O   UNL     1       1.518 -14.611  -6.730  0.00  0.00    +0.000 OA
ATOM     20  H   UNL     1       2.395 -14.843  -6.370  0.00  0.00    +0.000 HD
ENDBRANCH  18  19
ENDBRANCH   9  13
BRANCH   5  21
ATOM     21  C   UNL     1      -4.181 -18.979   1.805  0.00  0.00    +0.000 C 
ATOM     22  O   UNL     1      -4.196 -20.124   1.383  0.00  0.00    +0.000 OA
ATOM     23  C   UNL     1      -4.351 -18.952   3.294  0.00  0.00    +0.000 C 
ENDBRANCH   5  21
BRANCH   3  24
ATOM     24  N   UNL     1      -2.144 -18.690  -0.234  0.00  0.00    +0.000 N 
ATOM     25  H   UNL     1      -2.219 -19.208  -1.114  0.00  0.00    +0.000 HD
BRANCH  24  26
ATOM     26  C   UNL     1      -0.907 -18.775   0.343  0.00  0.00    +0.000 A 
ATOM     27  C   UNL     1       0.239 -18.535  -0.496  0.00  0.00    +0.000 A 
ATOM     28  C   UNL     1       1.571 -19.328  -0.473  0.00  0.00    +0.000 A 
ATOM     29  C   UNL     1       1.852 -20.444   0.398  0.00  0.00    +0.000 A 
ATOM     30  C   UNL     1       0.698 -20.703   1.220  0.00  0.00    +0.000 A 
ATOM     31  C   UNL     1      -0.631 -19.908   1.193  0.00  0.00    +0.000 A 
BRANCH  29  32
ATOM     32  C   UNL     1       3.104 -21.087   0.525  0.00  0.00    +0.000 C 
BRANCH  32  33
ATOM     33  N   UNL     1       4.382 -21.760   0.669  0.00  0.00    +0.000 NA
ATOM     34  C   UNL     1       4.418 -22.839  -0.305  0.00  0.00    +0.000 C 
ATOM     35  C   UNL     1       4.403 -22.375   1.986  0.00  0.00    +0.000 C 
ENDBRANCH  32  33
ENDBRANCH  29  32
ENDBRANCH  24  26
ENDBRANCH   3  24
TORSDOF 7
ENDMDL
MODEL 4
REMARK VINA RESULT:      -6.0     19.663     21.798
REMARK  Name = OTSSP167.pdbqt.pdb
REMARK  7 active torsions:
REMARK  status: ('A' for Active; 'I' for Inactive)
REMARK    1  A    between atoms: C_5  and  N_19
REMARK    2  A    between atoms: C_7  and  C_31
REMARK    3  A    between atoms: C_11  and  C_13
REMARK    4  A    between atoms: C_18  and  O_34
REMARK    5  A    between atoms: N_19  and  C_21
REMARK    6  A    between atoms: C_24  and  C_27
REMARK    7  A    between atoms: C_27  and  N_28
REMARK                            x       y       z     vdW  Elec       q    Type
REMARK                         _______ _______ _______ _____ _____    ______ ____
ROOT
ATOM      1  N   UNL     1     -16.244 -20.980  -1.014  0.00  0.00    +0.000 NA
ATOM      2  N   UNL     1     -19.511 -20.514  -2.585  0.00  0.00    +0.000 NA
ATOM      3  C   UNL     1     -16.845 -19.709  -3.002  0.00  0.00    +0.000 A 
ATOM      4  C   UNL     1     -17.172 -20.552  -1.907  0.00  0.00    +0.000 A 
ATOM      5  C   UNL     1     -17.887 -19.292  -3.857  0.00  0.00    +0.000 A 
ATOM      6  C   UNL     1     -18.528 -20.912  -1.760  0.00  0.00    +0.000 A 
ATOM      7  C   UNL     1     -19.174 -19.714  -3.612  0.00  0.00    +0.000 A 
ATOM      8  C   UNL     1     -18.859 -21.724  -0.690  0.00  0.00    +0.000 A 
ATOM      9  C   UNL     1     -16.595 -21.783   0.020  0.00  0.00    +0.000 A 
ATOM     10  C   UNL     1     -17.906 -22.174   0.212  0.00  0.00    +0.000 A 
ENDROOT
BRANCH   9  13
ATOM     11 CL   UNL     1     -14.424 -25.599   2.744  0.00  0.00    +0.000 Cl
ATOM     12 CL   UNL     1     -12.295 -20.585   2.626  0.00  0.00    +0.000 Cl
ATOM     13  C   UNL     1     -15.505 -22.217   0.898  0.00  0.00    +0.000 A 
ATOM     14  C   UNL     1     -14.504 -21.335   1.321  0.00  0.00    +0.000 A 
ATOM     15  C   UNL     1     -15.436 -23.539   1.358  0.00  0.00    +0.000 A 
ATOM     16  C   UNL     1     -14.418 -23.963   2.208  0.00  0.00    +0.000 A 
ATOM     17  C   UNL     1     -13.476 -21.751   2.168  0.00  0.00    +0.000 A 
ATOM     18  C   UNL     1     -13.429 -23.071   2.617  0.00  0.00    +0.000 A 
BRANCH  18  19
ATOM     19  O   UNL     1     -12.419 -23.473   3.451  0.00  0.00    +0.000 OA
ATOM     20  H   UNL     1     -11.573 -23.381   2.974  0.00  0.00    +0.000 HD
ENDBRANCH  18  19
ENDBRANCH   9  13
BRANCH   5  21
ATOM     21  C   UNL     1     -17.678 -18.388  -4.986  0.00  0.00    +0.000 C 
ATOM     22  O   UNL     1     -17.020 -17.362  -4.949  0.00  0.00    +0.000 OA
ATOM     23  C   UNL     1     -18.294 -18.583  -6.338  0.00  0.00    +0.000 C 
ENDBRANCH   5  21
BRANCH   3  24
ATOM     24  N   UNL     1     -15.500 -19.349  -3.335  0.00  0.00    +0.000 N 
ATOM     25  H   UNL     1     -15.256 -19.485  -4.320  0.00  0.00    +0.000 HD
BRANCH  24  26
ATOM     26  C   UNL     1     -14.685 -18.461  -2.690  0.00  0.00    +0.000 A 
ATOM     27  C   UNL     1     -13.474 -18.973  -2.101  0.00  0.00    +0.000 A 
ATOM     28  C   UNL     1     -12.885 -18.569  -0.725  0.00  0.00    +0.000 A 
ATOM     29  C   UNL     1     -13.479 -17.614   0.180  0.00  0.00    +0.000 A 
ATOM     30  C   UNL     1     -14.705 -17.119  -0.396  0.00  0.00    +0.000 A 
ATOM     31  C   UNL     1     -15.290 -17.528  -1.770  0.00  0.00    +0.000 A 
BRANCH  29  32
ATOM     32  C   UNL     1     -12.887 -17.135   1.369  0.00  0.00    +0.000 C 
BRANCH  32  33
ATOM     33  N   UNL     1     -12.292 -16.651   2.602  0.00  0.00    +0.000 NA
ATOM     34  C   UNL     1     -10.961 -17.228   2.698  0.00  0.00    +0.000 C 
ATOM     35  C   UNL     1     -13.072 -17.194   3.702  0.00  0.00    +0.000 C 
ENDBRANCH  32  33
ENDBRANCH  29  32
ENDBRANCH  24  26
ENDBRANCH   3  24
TORSDOF 7
ENDMDL
MODEL 5
REMARK VINA RESULT:      -5.8      1.494      1.982
REMARK  Name = OTSSP167.pdbqt.pdb
REMARK  7 active torsions:
REMARK  status: ('A' for Active; 'I' for Inactive)
REMARK    1  A    between atoms: C_5  and  N_19
REMARK    2  A    between atoms: C_7  and  C_31
REMARK    3  A    between atoms: C_11  and  C_13
REMARK    4  A    between atoms: C_18  and  O_34
REMARK    5  A    between atoms: N_19  and  C_21
REMARK    6  A    between atoms: C_24  and  C_27
REMARK    7  A    between atoms: C_27  and  N_28
REMARK                            x       y       z     vdW  Elec       q    Type
REMARK                         _______ _______ _______ _____ _____    ______ ____
ROOT
ATOM      1  N   UNL     1      -2.363 -35.392  -8.509  0.00  0.00    +0.000 NA
ATOM      2  N   UNL     1      -5.724 -34.177  -9.270  0.00  0.00    +0.000 NA
ATOM      3  C   UNL     1      -4.175 -34.786  -6.999  0.00  0.00    +0.000 A 
ATOM      4  C   UNL     1      -3.623 -34.936  -8.299  0.00  0.00    +0.000 A 
ATOM      5  C   UNL     1      -5.506 -34.334  -6.887  0.00  0.00    +0.000 A 
ATOM      6  C   UNL     1      -4.459 -34.615  -9.389  0.00  0.00    +0.000 A 
ATOM      7  C   UNL     1      -6.222 -34.048  -8.028  0.00  0.00    +0.000 A 
ATOM      8  C   UNL     1      -3.935 -34.767 -10.660  0.00  0.00    +0.000 A 
ATOM      9  C   UNL     1      -1.871 -35.524  -9.765  0.00  0.00    +0.000 A 
ATOM     10  C   UNL     1      -2.641 -35.219 -10.871  0.00  0.00    +0.000 A 
ENDROOT
BRANCH   9  13
ATOM     11 CL   UNL     1       1.483 -39.428  -9.321  0.00  0.00    +0.000 Cl
ATOM     12 CL   UNL     1       3.081 -34.418 -10.751  0.00  0.00    +0.000 Cl
ATOM     13  C   UNL     1      -0.485 -35.987  -9.871  0.00  0.00    +0.000 A 
ATOM     14  C   UNL     1       0.557 -35.121 -10.222  0.00  0.00    +0.000 A 
ATOM     15  C   UNL     1      -0.153 -37.322  -9.607  0.00  0.00    +0.000 A 
ATOM     16  C   UNL     1       1.161 -37.776  -9.685  0.00  0.00    +0.000 A 
ATOM     17  C   UNL     1       1.876 -35.566 -10.309  0.00  0.00    +0.000 A 
ATOM     18  C   UNL     1       2.185 -36.899 -10.039  0.00  0.00    +0.000 A 
BRANCH  18  19
ATOM     19  O   UNL     1       3.483 -37.330 -10.121  0.00  0.00    +0.000 OA
ATOM     20  H   UNL     1       3.931 -37.117  -9.282  0.00  0.00    +0.000 HD
ENDBRANCH  18  19
ENDBRANCH   9  13
BRANCH   5  21
ATOM     21  C   UNL     1      -6.193 -34.187  -5.606  0.00  0.00    +0.000 C 
ATOM     22  O   UNL     1      -6.071 -33.236  -4.852  0.00  0.00    +0.000 OA
ATOM     23  C   UNL     1      -7.109 -35.220  -5.025  0.00  0.00    +0.000 C 
ENDBRANCH   5  21
BRANCH   3  24
ATOM     24  N   UNL     1      -3.412 -34.974  -5.802  0.00  0.00    +0.000 N 
ATOM     25  H   UNL     1      -3.185 -34.109  -5.303  0.00  0.00    +0.000 HD
BRANCH  24  26
ATOM     26  C   UNL     1      -3.349 -36.089  -5.014  0.00  0.00    +0.000 A 
ATOM     27  C   UNL     1      -3.521 -35.914  -3.594  0.00  0.00    +0.000 A 
ATOM     28  C   UNL     1      -2.714 -36.629  -2.480  0.00  0.00    +0.000 A 
ATOM     29  C   UNL     1      -1.653 -37.580  -2.710  0.00  0.00    +0.000 A 
ATOM     30  C   UNL     1      -1.462 -37.739  -4.130  0.00  0.00    +0.000 A 
ATOM     31  C   UNL     1      -2.269 -37.020  -5.239  0.00  0.00    +0.000 A 
BRANCH  29  32
ATOM     32  C   UNL     1      -1.005 -38.340  -1.711  0.00  0.00    +0.000 C 
BRANCH  32  33
ATOM     33  N   UNL     1      -0.348 -39.136  -0.690  0.00  0.00    +0.000 NA
ATOM     34  C   UNL     1      -0.367 -40.519  -1.138  0.00  0.00    +0.000 C 
ATOM     35  C   UNL     1      -1.168 -39.066   0.508  0.00  0.00    +0.000 C 
ENDBRANCH  32  33
ENDBRANCH  29  32
ENDBRANCH  24  26
ENDBRANCH   3  24
TORSDOF 7
ENDMDL
MODEL 6
REMARK VINA RESULT:      -5.7      4.566      9.239
REMARK  Name = OTSSP167.pdbqt.pdb
REMARK  7 active torsions:
REMARK  status: ('A' for Active; 'I' for Inactive)
REMARK    1  A    between atoms: C_5  and  N_19
REMARK    2  A    between atoms: C_7  and  C_31
REMARK    3  A    between atoms: C_11  and  C_13
REMARK    4  A    between atoms: C_18  and  O_34
REMARK    5  A    between atoms: N_19  and  C_21
REMARK    6  A    between atoms: C_24  and  C_27
REMARK    7  A    between atoms: C_27  and  N_28
REMARK                            x       y       z     vdW  Elec       q    Type
REMARK                         _______ _______ _______ _____ _____    ______ ____
ROOT
ATOM      1  N   UNL     1      -5.565 -36.184  -0.341  0.00  0.00    +0.000 NA
ATOM      2  N   UNL     1      -8.899 -35.828   1.112  0.00  0.00    +0.000 NA
ATOM      3  C   UNL     1      -7.246 -34.462  -0.713  0.00  0.00    +0.000 A 
ATOM      4  C   UNL     1      -6.794 -35.662  -0.102  0.00  0.00    +0.000 A 
ATOM      5  C   UNL     1      -8.529 -33.984  -0.376  0.00  0.00    +0.000 A 
ATOM      6  C   UNL     1      -7.676 -36.289   0.804  0.00  0.00    +0.000 A 
ATOM      7  C   UNL     1      -9.301 -34.688   0.521  0.00  0.00    +0.000 A 
ATOM      8  C   UNL     1      -7.241 -37.453   1.413  0.00  0.00    +0.000 A 
ATOM      9  C   UNL     1      -5.168 -37.331   0.263  0.00  0.00    +0.000 A 
ATOM     10  C   UNL     1      -5.990 -37.993   1.154  0.00  0.00    +0.000 A 
ENDROOT
BRANCH   9  13
ATOM     11 CL   UNL     1      -0.938 -39.945   1.664  0.00  0.00    +0.000 Cl
ATOM     12 CL   UNL     1      -1.381 -37.617  -3.243  0.00  0.00    +0.000 Cl
ATOM     13  C   UNL     1      -3.837 -37.823  -0.100  0.00  0.00    +0.000 A 
ATOM     14  C   UNL     1      -3.264 -37.549  -1.347  0.00  0.00    +0.000 A 
ATOM     15  C   UNL     1      -3.081 -38.581   0.805  0.00  0.00    +0.000 A 
ATOM     16  C   UNL     1      -1.806 -39.041   0.484  0.00  0.00    +0.000 A 
ATOM     17  C   UNL     1      -1.990 -38.010  -1.681  0.00  0.00    +0.000 A 
ATOM     18  C   UNL     1      -1.253 -38.760  -0.764  0.00  0.00    +0.000 A 
BRANCH  18  19
ATOM     19  O   UNL     1      -0.001 -39.207  -1.097  0.00  0.00    +0.000 OA
ATOM     20  H   UNL     1       0.617 -38.455  -1.044  0.00  0.00    +0.000 HD
ENDBRANCH  18  19
ENDBRANCH   9  13
BRANCH   5  21
ATOM     21  C   UNL     1      -9.081 -32.739  -0.905  0.00  0.00    +0.000 C 
ATOM     22  O   UNL     1      -9.592 -32.611  -2.004  0.00  0.00    +0.000 OA
ATOM     23  C   UNL     1      -9.044 -31.431  -0.174  0.00  0.00    +0.000 C 
ENDBRANCH   5  21
BRANCH   3  24
ATOM     24  N   UNL     1      -6.504 -33.776  -1.727  0.00  0.00    +0.000 N 
ATOM     25  H   UNL     1      -5.801 -33.123  -1.370  0.00  0.00    +0.000 HD
BRANCH  24  26
ATOM     26  C   UNL     1      -6.269 -34.180  -3.013  0.00  0.00    +0.000 A 
ATOM     27  C   UNL     1      -4.914 -34.515  -3.369  0.00  0.00    +0.000 A 
ATOM     28  C   UNL     1      -4.202 -34.151  -4.698  0.00  0.00    +0.000 A 
ATOM     29  C   UNL     1      -4.800 -33.404  -5.778  0.00  0.00    +0.000 A 
ATOM     30  C   UNL     1      -6.148 -33.045  -5.413  0.00  0.00    +0.000 A 
ATOM     31  C   UNL     1      -6.854 -33.411  -4.084  0.00  0.00    +0.000 A 
BRANCH  29  32
ATOM     32  C   UNL     1      -4.214 -33.184  -7.043  0.00  0.00    +0.000 C 
BRANCH  32  33
ATOM     33  N   UNL     1      -3.597 -32.947  -8.337  0.00  0.00    +0.000 NA
ATOM     34  C   UNL     1      -4.641 -33.051  -9.342  0.00  0.00    +0.000 C 
ATOM     35  C   UNL     1      -2.664 -34.035  -8.578  0.00  0.00    +0.000 C 
ENDBRANCH  32  33
ENDBRANCH  29  32
ENDBRANCH  24  26
ENDBRANCH   3  24
TORSDOF 7
ENDMDL
MODEL 7
REMARK VINA RESULT:      -5.7      4.453      7.823
REMARK  Name = OTSSP167.pdbqt.pdb
REMARK  7 active torsions:
REMARK  status: ('A' for Active; 'I' for Inactive)
REMARK    1  A    between atoms: C_5  and  N_19
REMARK    2  A    between atoms: C_7  and  C_31
REMARK    3  A    between atoms: C_11  and  C_13
REMARK    4  A    between atoms: C_18  and  O_34
REMARK    5  A    between atoms: N_19  and  C_21
REMARK    6  A    between atoms: C_24  and  C_27
REMARK    7  A    between atoms: C_27  and  N_28
REMARK                            x       y       z     vdW  Elec       q    Type
REMARK                         _______ _______ _______ _____ _____    ______ ____
ROOT
ATOM      1  N   UNL     1      -6.004 -34.328  -4.828  0.00  0.00    +0.000 NA
ATOM      2  N   UNL     1      -6.275 -35.684  -8.210  0.00  0.00    +0.000 NA
ATOM      3  C   UNL     1      -4.354 -34.380  -6.618  0.00  0.00    +0.000 A 
ATOM      4  C   UNL     1      -5.638 -34.675  -6.088  0.00  0.00    +0.000 A 
ATOM      5  C   UNL     1      -4.080 -34.754  -7.950  0.00  0.00    +0.000 A 
ATOM      6  C   UNL     1      -6.549 -35.326  -6.946  0.00  0.00    +0.000 A 
ATOM      7  C   UNL     1      -5.052 -35.391  -8.688  0.00  0.00    +0.000 A 
ATOM      8  C   UNL     1      -7.807 -35.608  -6.443  0.00  0.00    +0.000 A 
ATOM      9  C   UNL     1      -7.240 -34.624  -4.358  0.00  0.00    +0.000 A 
ATOM     10  C   UNL     1      -8.173 -35.267  -5.149  0.00  0.00    +0.000 A 
ENDROOT
BRANCH   9  13
ATOM     11 CL   UNL     1      -6.578 -35.613   0.670  0.00  0.00    +0.000 Cl
ATOM     12 CL   UNL     1      -9.578 -31.405  -1.058  0.00  0.00    +0.000 Cl
ATOM     13  C   UNL     1      -7.512 -34.239  -2.971  0.00  0.00    +0.000 A 
ATOM     14  C   UNL     1      -8.315 -33.136  -2.656  0.00  0.00    +0.000 A 
ATOM     15  C   UNL     1      -6.985 -34.977  -1.904  0.00  0.00    +0.000 A 
ATOM     16  C   UNL     1      -7.248 -34.636  -0.579  0.00  0.00    +0.000 A 
ATOM     17  C   UNL     1      -8.580 -32.781  -1.333  0.00  0.00    +0.000 A 
ATOM     18  C   UNL     1      -8.047 -33.533  -0.286  0.00  0.00    +0.000 A 
BRANCH  18  19
ATOM     19  O   UNL     1      -8.315 -33.182   1.011  0.00  0.00    +0.000 OA
ATOM     20  H   UNL     1      -7.507 -32.795   1.397  0.00  0.00    +0.000 HD
ENDBRANCH  18  19
ENDBRANCH   9  13
BRANCH   5  21
ATOM     21  C   UNL     1      -2.812 -34.463  -8.615  0.00  0.00    +0.000 C 
ATOM     22  O   UNL     1      -2.425 -33.349  -8.927  0.00  0.00    +0.000 OA
ATOM     23  C   UNL     1      -1.835 -35.512  -9.050  0.00  0.00    +0.000 C 
ENDBRANCH   5  21
BRANCH   3  24
ATOM     24  N   UNL     1      -3.296 -33.818  -5.833  0.00  0.00    +0.000 N 
ATOM     25  H   UNL     1      -3.352 -32.803  -5.712  0.00  0.00    +0.000 HD
BRANCH  24  26
ATOM     26  C   UNL     1      -2.537 -34.439  -4.881  0.00  0.00    +0.000 A 
ATOM     27  C   UNL     1      -2.080 -35.777  -5.160  0.00  0.00    +0.000 A 
ATOM     28  C   UNL     1      -2.032 -36.955  -4.152  0.00  0.00    +0.000 A 
ATOM     29  C   UNL     1      -2.453 -36.881  -2.774  0.00  0.00    +0.000 A 
ATOM     30  C   UNL     1      -2.934 -35.550  -2.499  0.00  0.00    +0.000 A 
ATOM     31  C   UNL     1      -2.982 -34.377  -3.510  0.00  0.00    +0.000 A 
BRANCH  29  32
ATOM     32  C   UNL     1      -2.288 -37.901  -1.812  0.00  0.00    +0.000 C 
BRANCH  32  33
ATOM     33  N   UNL     1      -2.136 -38.946  -0.815  0.00  0.00    +0.000 NA
ATOM     34  C   UNL     1      -3.454 -39.218  -0.265  0.00  0.00    +0.000 C 
ATOM     35  C   UNL     1      -1.328 -38.401   0.264  0.00  0.00    +0.000 C 
ENDBRANCH  32  33
ENDBRANCH  29  32
ENDBRANCH  24  26
ENDBRANCH   3  24
TORSDOF 7
ENDMDL
MODEL 8
REMARK VINA RESULT:      -5.7     19.734     21.410
REMARK  Name = OTSSP167.pdbqt.pdb
REMARK  7 active torsions:
REMARK  status: ('A' for Active; 'I' for Inactive)
REMARK    1  A    between atoms: C_5  and  N_19
REMARK    2  A    between atoms: C_7  and  C_31
REMARK    3  A    between atoms: C_11  and  C_13
REMARK    4  A    between atoms: C_18  and  O_34
REMARK    5  A    between atoms: N_19  and  C_21
REMARK    6  A    between atoms: C_24  and  C_27
REMARK    7  A    between atoms: C_27  and  N_28
REMARK                            x       y       z     vdW  Elec       q    Type
REMARK                         _______ _______ _______ _____ _____    ______ ____
ROOT
ATOM      1  N   UNL     1     -14.621 -19.663  -0.205  0.00  0.00    +0.000 NA
ATOM      2  N   UNL     1     -12.423 -19.248   2.684  0.00  0.00    +0.000 NA
ATOM      3  C   UNL     1     -13.842 -21.316   1.404  0.00  0.00    +0.000 A 
ATOM      4  C   UNL     1     -13.888 -19.994   0.887  0.00  0.00    +0.000 A 
ATOM      5  C   UNL     1     -13.076 -21.552   2.564  0.00  0.00    +0.000 A 
ATOM      6  C   UNL     1     -13.155 -19.009   1.584  0.00  0.00    +0.000 A 
ATOM      7  C   UNL     1     -12.399 -20.508   3.154  0.00  0.00    +0.000 A 
ATOM      8  C   UNL     1     -13.203 -17.716   1.095  0.00  0.00    +0.000 A 
ATOM      9  C   UNL     1     -14.642 -18.389  -0.668  0.00  0.00    +0.000 A 
ATOM     10  C   UNL     1     -13.939 -17.384  -0.032  0.00  0.00    +0.000 A 
ENDROOT
BRANCH   9  13
ATOM     11 CL   UNL     1     -15.671 -15.329  -4.702  0.00  0.00    +0.000 Cl
ATOM     12 CL   UNL     1     -18.397 -19.970  -3.849  0.00  0.00    +0.000 Cl
ATOM     13  C   UNL     1     -15.434 -18.155  -1.878  0.00  0.00    +0.000 A 
ATOM     14  C   UNL     1     -16.434 -19.045  -2.288  0.00  0.00    +0.000 A 
ATOM     15  C   UNL     1     -15.224 -17.015  -2.664  0.00  0.00    +0.000 A 
ATOM     16  C   UNL     1     -15.980 -16.767  -3.807  0.00  0.00    +0.000 A 
ATOM     17  C   UNL     1     -17.194 -18.810  -3.434  0.00  0.00    +0.000 A 
ATOM     18  C   UNL     1     -16.970 -17.666  -4.201  0.00  0.00    +0.000 A 
BRANCH  18  19
ATOM     19  O   UNL     1     -17.721 -17.439  -5.324  0.00  0.00    +0.000 OA
ATOM     20  H   UNL     1     -18.649 -17.666  -5.123  0.00  0.00    +0.000 HD
ENDBRANCH  18  19
ENDBRANCH   9  13
BRANCH   5  21
ATOM     21  C   UNL     1     -12.991 -22.860   3.211  0.00  0.00    +0.000 C 
ATOM     22  O   UNL     1     -12.643 -23.891   2.662  0.00  0.00    +0.000 OA
ATOM     23  C   UNL     1     -13.372 -23.113   4.638  0.00  0.00    +0.000 C 
ENDBRANCH   5  21
BRANCH   3  24
ATOM     24  N   UNL     1     -14.449 -22.432   0.745  0.00  0.00    +0.000 N 
ATOM     25  H   UNL     1     -13.796 -23.174   0.477  0.00  0.00    +0.000 HD
BRANCH  24  26
ATOM     26  C   UNL     1     -15.746 -22.856   0.835  0.00  0.00    +0.000 A 
ATOM     27  C   UNL     1     -15.982 -24.174   1.368  0.00  0.00    +0.000 A 
ATOM     28  C   UNL     1     -17.015 -25.202   0.839  0.00  0.00    +0.000 A 
ATOM     29  C   UNL     1     -17.893 -24.986  -0.286  0.00  0.00    +0.000 A 
ATOM     30  C   UNL     1     -17.641 -23.679  -0.837  0.00  0.00    +0.000 A 
ATOM     31  C   UNL     1     -16.607 -22.655  -0.306  0.00  0.00    +0.000 A 
BRANCH  29  32
ATOM     32  C   UNL     1     -18.929 -25.855  -0.693  0.00  0.00    +0.000 C 
BRANCH  32  33
ATOM     33  N   UNL     1     -19.985 -26.753  -1.128  0.00  0.00    +0.000 NA
ATOM     34  C   UNL     1     -19.375 -28.045  -1.394  0.00  0.00    +0.000 C 
ATOM     35  C   UNL     1     -20.487 -26.250  -2.396  0.00  0.00    +0.000 C 
ENDBRANCH  32  33
ENDBRANCH  29  32
ENDBRANCH  24  26
ENDBRANCH   3  24
TORSDOF 7
ENDMDL
MODEL 9
REMARK VINA RESULT:      -5.7     17.779     19.855
REMARK  Name = OTSSP167.pdbqt.pdb
REMARK  7 active torsions:
REMARK  status: ('A' for Active; 'I' for Inactive)
REMARK    1  A    between atoms: C_5  and  N_19
REMARK    2  A    between atoms: C_7  and  C_31
REMARK    3  A    between atoms: C_11  and  C_13
REMARK    4  A    between atoms: C_18  and  O_34
REMARK    5  A    between atoms: N_19  and  C_21
REMARK    6  A    between atoms: C_24  and  C_27
REMARK    7  A    between atoms: C_27  and  N_28
REMARK                            x       y       z     vdW  Elec       q    Type
REMARK                         _______ _______ _______ _____ _____    ______ ____
ROOT
ATOM      1  N   UNL     1      -1.088 -16.427  -2.242  0.00  0.00    +0.000 NA
ATOM      2  N   UNL     1      -0.914 -13.500  -4.423  0.00  0.00    +0.000 NA
ATOM      3  C   UNL     1       0.675 -15.731  -3.771  0.00  0.00    +0.000 A 
ATOM      4  C   UNL     1      -0.598 -15.560  -3.163  0.00  0.00    +0.000 A 
ATOM      5  C   UNL     1       1.110 -14.758  -4.694  0.00  0.00    +0.000 A 
ATOM      6  C   UNL     1      -1.335 -14.416  -3.536  0.00  0.00    +0.000 A 
ATOM      7  C   UNL     1       0.296 -13.685  -4.981  0.00  0.00    +0.000 A 
ATOM      8  C   UNL     1      -2.571 -14.234  -2.942  0.00  0.00    +0.000 A 
ATOM      9  C   UNL     1      -2.307 -16.229  -1.682  0.00  0.00    +0.000 A 
ATOM     10  C   UNL     1      -3.077 -15.131  -2.012  0.00  0.00    +0.000 A 
ENDROOT
BRANCH   9  13
ATOM     11 CL   UNL     1      -1.362 -20.731   0.671  0.00  0.00    +0.000 Cl
ATOM     12 CL   UNL     1      -5.927 -17.905   1.604  0.00  0.00    +0.000 Cl
ATOM     13  C   UNL     1      -2.753 -17.249  -0.730  0.00  0.00    +0.000 A 
ATOM     14  C   UNL     1      -3.979 -17.148  -0.062  0.00  0.00    +0.000 A 
ATOM     15  C   UNL     1      -1.965 -18.377  -0.465  0.00  0.00    +0.000 A 
ATOM     16  C   UNL     1      -2.382 -19.366   0.423  0.00  0.00    +0.000 A 
ATOM     17  C   UNL     1      -4.403 -18.129   0.835  0.00  0.00    +0.000 A 
ATOM     18  C   UNL     1      -3.605 -19.246   1.081  0.00  0.00    +0.000 A 
BRANCH  18  19
ATOM     19  O   UNL     1      -4.029 -20.209   1.959  0.00  0.00    +0.000 OA
ATOM     20  H   UNL     1      -4.981 -20.361   1.811  0.00  0.00    +0.000 HD
ENDBRANCH  18  19
ENDBRANCH   9  13
BRANCH   5  21
ATOM     21  C   UNL     1       2.416 -14.805  -5.346  0.00  0.00    +0.000 C 
ATOM     22  O   UNL     1       3.484 -14.918  -4.766  0.00  0.00    +0.000 OA
ATOM     23  C   UNL     1       2.619 -14.669  -6.824  0.00  0.00    +0.000 C 
ENDBRANCH   5  21
BRANCH   3  24
ATOM     24  N   UNL     1       1.485 -16.894  -3.568  0.00  0.00    +0.000 N 
ATOM     25  H   UNL     1       1.875 -17.295  -4.426  0.00  0.00    +0.000 HD
BRANCH  24  26
ATOM     26  C   UNL     1       2.170 -17.253  -2.440  0.00  0.00    +0.000 A 
ATOM     27  C   UNL     1       3.593 -17.443  -2.555  0.00  0.00    +0.000 A 
ATOM     28  C   UNL     1       4.422 -18.569  -1.885  0.00  0.00    +0.000 A 
ATOM     29  C   UNL     1       3.876 -19.608  -1.046  0.00  0.00    +0.000 A 
ATOM     30  C   UNL     1       2.449 -19.436  -0.949  0.00  0.00    +0.000 A 
ATOM     31  C   UNL     1       1.625 -18.310  -1.622  0.00  0.00    +0.000 A 
BRANCH  29  32
ATOM     32  C   UNL     1       4.632 -20.556  -0.320  0.00  0.00    +0.000 C 
BRANCH  32  33
ATOM     33  N   UNL     1       5.396 -21.543   0.422  0.00  0.00    +0.000 NA
ATOM     34  C   UNL     1       6.365 -22.122  -0.494  0.00  0.00    +0.000 C 
ATOM     35  C   UNL     1       4.479 -22.606   0.800  0.00  0.00    +0.000 C 
ENDBRANCH  32  33
ENDBRANCH  29  32
ENDBRANCH  24  26
ENDBRANCH   3  24
TORSDOF 7
ENDMDL
