MODEL 1
REMARK VINA RESULT:      -5.0      0.000      0.000
REMARK  Name = 
REMARK  0 active torsions:
REMARK  status: ('A' for Active; 'I' for Inactive)
REMARK                            x       y       z     vdW  Elec       q    Type
REMARK                         _______ _______ _______ _____ _____    ______ ____
ROOT
ATOM      1  O   UNL     1      -2.045 -14.551  -0.124  0.00  0.00    +0.000 OA
ATOM      2  O   UNL     1      -0.493 -13.407  -4.965  0.00  0.00    +0.000 OA
ATOM      3  N   UNL     1      -3.029 -15.495  -0.223  0.00  0.00    +0.000 N 
ATOM      4  N   UNL     1      -1.111 -15.044  -3.450  0.00  0.00    +0.000 N 
ATOM      5  C   UNL     1      -3.096 -16.149  -1.616  0.00  0.00    +0.000 C 
ATOM      6  C   UNL     1      -1.816 -16.927  -1.980  0.00  0.00    +0.000 C 
ATOM      7  C   UNL     1      -3.483 -15.165  -2.727  0.00  0.00    +0.000 C 
ATOM      8  C   UNL     1      -0.653 -15.984  -2.402  0.00  0.00    +0.000 C 
ATOM      9  C   UNL     1      -1.487 -17.935  -0.864  0.00  0.00    +0.000 C 
ATOM     10  C   UNL     1      -2.312 -14.268  -3.127  0.00  0.00    +0.000 C 
ATOM     11  C   UNL     1      -2.759 -16.566   0.812  0.00  0.00    +0.000 C 
ATOM     12  C   UNL     1      -4.744 -14.369  -2.367  0.00  0.00    +0.000 C 
ATOM     13  C   UNL     1      -4.359 -14.833   0.075  0.00  0.00    +0.000 C 
ATOM     14  C   UNL     1      -1.456 -17.302   0.521  0.00  0.00    +0.000 C 
ATOM     15  C   UNL     1      -4.698 -13.773  -0.965  0.00  0.00    +0.000 C 
ATOM     16  C   UNL     1       0.572 -16.797  -2.851  0.00  0.00    +0.000 C 
ATOM     17  C   UNL     1       1.632 -15.876  -3.424  0.00  0.00    +0.000 C 
ATOM     18  C   UNL     1      -0.221 -14.431  -4.335  0.00  0.00    +0.000 C 
ATOM     19  C   UNL     1       1.066 -15.166  -4.632  0.00  0.00    +0.000 C 
ENDROOT
TORSDOF 0
ENDMDL
MODEL 2
REMARK VINA RESULT:      -4.9     13.453     15.752
REMARK  Name = 
REMARK  0 active torsions:
REMARK  status: ('A' for Active; 'I' for Inactive)
REMARK                            x       y       z     vdW  Elec       q    Type
REMARK                         _______ _______ _______ _____ _____    ______ ____
ROOT
ATOM      1  O   UNL     1     -11.108  -4.003  -6.406  0.00  0.00    +0.000 OA
ATOM      2  O   UNL     1     -15.875  -4.633  -8.413  0.00  0.00    +0.000 OA
ATOM      3  N   UNL     1     -11.006  -4.836  -5.327  0.00  0.00    +0.000 N 
ATOM      4  N   UNL     1     -13.994  -5.629  -7.504  0.00  0.00    +0.000 N 
ATOM      5  C   UNL     1     -12.121  -5.898  -5.280  0.00  0.00    +0.000 C 
ATOM      6  C   UNL     1     -12.087  -6.863  -6.482  0.00  0.00    +0.000 C 
ATOM      7  C   UNL     1     -13.519  -5.297  -5.090  0.00  0.00    +0.000 C 
ATOM      8  C   UNL     1     -12.662  -6.216  -7.774  0.00  0.00    +0.000 C 
ATOM      9  C   UNL     1     -10.682  -7.480  -6.612  0.00  0.00    +0.000 C 
ATOM     10  C   UNL     1     -14.058  -4.686  -6.383  0.00  0.00    +0.000 C 
ATOM     11  C   UNL     1      -9.664  -5.534  -5.396  0.00  0.00    +0.000 C 
ATOM     12  C   UNL     1     -13.560  -4.319  -3.909  0.00  0.00    +0.000 C 
ATOM     13  C   UNL     1     -11.071  -3.998  -4.067  0.00  0.00    +0.000 C 
ATOM     14  C   UNL     1      -9.572  -6.437  -6.621  0.00  0.00    +0.000 C 
ATOM     15  C   UNL     1     -12.421  -3.306  -3.927  0.00  0.00    +0.000 C 
ATOM     16  C   UNL     1     -12.702  -7.236  -8.923  0.00  0.00    +0.000 C 
ATOM     17  C   UNL     1     -13.423  -6.649 -10.122  0.00  0.00    +0.000 C 
ATOM     18  C   UNL     1     -14.930  -5.418  -8.519  0.00  0.00    +0.000 C 
ATOM     19  C   UNL     1     -14.845  -6.321  -9.728  0.00  0.00    +0.000 C 
ENDROOT
TORSDOF 0
ENDMDL
MODEL 3
REMARK VINA RESULT:      -4.8      1.700      2.427
REMARK  Name = 
REMARK  0 active torsions:
REMARK  status: ('A' for Active; 'I' for Inactive)
REMARK                            x       y       z     vdW  Elec       q    Type
REMARK                         _______ _______ _______ _____ _____    ______ ____
ROOT
ATOM      1  O   UNL     1      -2.521 -15.021   0.208  0.00  0.00    +0.000 OA
ATOM      2  O   UNL     1       0.971 -16.458  -3.383  0.00  0.00    +0.000 OA
ATOM      3  N   UNL     1      -3.685 -15.685  -0.065  0.00  0.00    +0.000 N 
ATOM      4  N   UNL     1      -0.722 -17.100  -1.941  0.00  0.00    +0.000 N 
ATOM      5  C   UNL     1      -3.492 -16.852  -1.052  0.00  0.00    +0.000 C 
ATOM      6  C   UNL     1      -2.568 -17.959  -0.506  0.00  0.00    +0.000 C 
ATOM      7  C   UNL     1      -3.049 -16.396  -2.447  0.00  0.00    +0.000 C 
ATOM      8  C   UNL     1      -1.066 -17.560  -0.577  0.00  0.00    +0.000 C 
ATOM      9  C   UNL     1      -3.072 -18.421   0.874  0.00  0.00    +0.000 C 
ATOM     10  C   UNL     1      -1.566 -16.030  -2.482  0.00  0.00    +0.000 C 
ATOM     11  C   UNL     1      -4.234 -16.227   1.238  0.00  0.00    +0.000 C 
ATOM     12  C   UNL     1      -3.949 -15.280  -2.993  0.00  0.00    +0.000 C 
ATOM     13  C   UNL     1      -4.672 -14.699  -0.655  0.00  0.00    +0.000 C 
ATOM     14  C   UNL     1      -3.300 -17.269   1.842  0.00  0.00    +0.000 C 
ATOM     15  C   UNL     1      -4.185 -14.155  -1.992  0.00  0.00    +0.000 C 
ATOM     16  C   UNL     1      -0.171 -18.723  -0.117  0.00  0.00    +0.000 C 
ATOM     17  C   UNL     1       1.289 -18.388  -0.355  0.00  0.00    +0.000 C 
ATOM     18  C   UNL     1       0.587 -17.135  -2.427  0.00  0.00    +0.000 C 
ATOM     19  C   UNL     1       1.510 -18.176  -1.835  0.00  0.00    +0.000 C 
ENDROOT
TORSDOF 0
ENDMDL
MODEL 4
REMARK VINA RESULT:      -4.7     19.438     20.950
REMARK  Name = 
REMARK  0 active torsions:
REMARK  status: ('A' for Active; 'I' for Inactive)
REMARK                            x       y       z     vdW  Elec       q    Type
REMARK                         _______ _______ _______ _____ _____    ______ ____
ROOT
ATOM      1  O   UNL     1      -5.611 -35.289  -6.495  0.00  0.00    +0.000 OA
ATOM      2  O   UNL     1      -1.927 -38.641  -4.965  0.00  0.00    +0.000 OA
ATOM      3  N   UNL     1      -5.079 -34.032  -6.414  0.00  0.00    +0.000 N 
ATOM      4  N   UNL     1      -2.455 -36.745  -6.183  0.00  0.00    +0.000 N 
ATOM      5  C   UNL     1      -3.545 -34.038  -6.270  0.00  0.00    +0.000 C 
ATOM      6  C   UNL     1      -2.827 -34.655  -7.486  0.00  0.00    +0.000 C 
ATOM      7  C   UNL     1      -3.066 -34.674  -4.959  0.00  0.00    +0.000 C 
ATOM      8  C   UNL     1      -2.901 -36.209  -7.489  0.00  0.00    +0.000 C 
ATOM      9  C   UNL     1      -3.301 -33.960  -8.775  0.00  0.00    +0.000 C 
ATOM     10  C   UNL     1      -3.137 -36.200  -5.006  0.00  0.00    +0.000 C 
ATOM     11  C   UNL     1      -5.452 -33.282  -7.676  0.00  0.00    +0.000 C 
ATOM     12  C   UNL     1      -3.790 -34.082  -3.742  0.00  0.00    +0.000 C 
ATOM     13  C   UNL     1      -5.684 -33.331  -5.216  0.00  0.00    +0.000 C 
ATOM     14  C   UNL     1      -4.817 -33.918  -8.907  0.00  0.00    +0.000 C 
ATOM     15  C   UNL     1      -5.303 -34.024  -3.914  0.00  0.00    +0.000 C 
ATOM     16  C   UNL     1      -2.092 -36.791  -8.659  0.00  0.00    +0.000 C 
ATOM     17  C   UNL     1      -2.026 -38.302  -8.552  0.00  0.00    +0.000 C 
ATOM     18  C   UNL     1      -1.970 -38.048  -6.045  0.00  0.00    +0.000 C 
ATOM     19  C   UNL     1      -1.331 -38.674  -7.263  0.00  0.00    +0.000 C 
ENDROOT
TORSDOF 0
ENDMDL
MODEL 5
REMARK VINA RESULT:      -4.7     15.956     18.086
REMARK  Name = 
REMARK  0 active torsions:
REMARK  status: ('A' for Active; 'I' for Inactive)
REMARK                            x       y       z     vdW  Elec       q    Type
REMARK                         _______ _______ _______ _____ _____    ______ ____
ROOT
ATOM      1  O   UNL     1       6.259 -31.139   0.862  0.00  0.00    +0.000 OA
ATOM      2  O   UNL     1       2.237 -34.450   0.960  0.00  0.00    +0.000 OA
ATOM      3  N   UNL     1       5.770 -29.894   1.142  0.00  0.00    +0.000 N 
ATOM      4  N   UNL     1       3.302 -32.644   1.941  0.00  0.00    +0.000 N 
ATOM      5  C   UNL     1       4.346 -29.927   1.730  0.00  0.00    +0.000 C 
ATOM      6  C   UNL     1       4.270 -30.656   3.086  0.00  0.00    +0.000 C 
ATOM      7  C   UNL     1       3.300 -30.468   0.748  0.00  0.00    +0.000 C 
ATOM      8  C   UNL     1       4.314 -32.202   2.927  0.00  0.00    +0.000 C 
ATOM      9  C   UNL     1       5.302 -30.053   4.057  0.00  0.00    +0.000 C 
ATOM     10  C   UNL     1       3.363 -31.990   0.631  0.00  0.00    +0.000 C 
ATOM     11  C   UNL     1       6.700 -29.237   2.140  0.00  0.00    +0.000 C 
ATOM     12  C   UNL     1       3.381 -29.764  -0.613  0.00  0.00    +0.000 C 
ATOM     13  C   UNL     1       5.756 -29.085  -0.139  0.00  0.00    +0.000 C 
ATOM     14  C   UNL     1       6.704 -29.984   3.468  0.00  0.00    +0.000 C 
ATOM     15  C   UNL     1       4.800 -29.682  -1.164  0.00  0.00    +0.000 C 
ATOM     16  C   UNL     1       4.136 -32.895   4.287  0.00  0.00    +0.000 C 
ATOM     17  C   UNL     1       4.005 -34.394   4.100  0.00  0.00    +0.000 C 
ATOM     18  C   UNL     1       2.788 -33.944   1.939  0.00  0.00    +0.000 C 
ATOM     19  C   UNL     1       2.782 -34.681   3.259  0.00  0.00    +0.000 C 
ENDROOT
TORSDOF 0
ENDMDL
MODEL 6
REMARK VINA RESULT:      -4.6     19.010     20.482
REMARK  Name = 
REMARK  0 active torsions:
REMARK  status: ('A' for Active; 'I' for Inactive)
REMARK                            x       y       z     vdW  Elec       q    Type
REMARK                         _______ _______ _______ _____ _____    ______ ____
ROOT
ATOM      1  O   UNL     1      -6.390 -37.007  -3.419  0.00  0.00    +0.000 OA
ATOM      2  O   UNL     1      -2.484 -33.612  -4.019  0.00  0.00    +0.000 OA
ATOM      3  N   UNL     1      -7.560 -36.309  -3.530  0.00  0.00    +0.000 N 
ATOM      4  N   UNL     1      -4.564 -34.338  -4.729  0.00  0.00    +0.000 N 
ATOM      5  C   UNL     1      -7.365 -34.904  -4.132  0.00  0.00    +0.000 C 
ATOM      6  C   UNL     1      -6.828 -34.936  -5.577  0.00  0.00    +0.000 C 
ATOM      7  C   UNL     1      -6.522 -33.979  -3.246  0.00  0.00    +0.000 C 
ATOM      8  C   UNL     1      -5.305 -35.247  -5.633  0.00  0.00    +0.000 C 
ATOM      9  C   UNL     1      -7.727 -35.837  -6.444  0.00  0.00    +0.000 C 
ATOM     10  C   UNL     1      -5.031 -34.303  -3.340  0.00  0.00    +0.000 C 
ATOM     11  C   UNL     1      -8.498 -37.100  -4.417  0.00  0.00    +0.000 C 
ATOM     12  C   UNL     1      -7.034 -33.956  -1.800  0.00  0.00    +0.000 C 
ATOM     13  C   UNL     1      -8.170 -36.172  -2.150  0.00  0.00    +0.000 C 
ATOM     14  C   UNL     1      -7.954 -37.215  -5.836  0.00  0.00    +0.000 C 
ATOM     15  C   UNL     1      -7.282 -35.346  -1.227  0.00  0.00    +0.000 C 
ATOM     16  C   UNL     1      -4.787 -35.173  -7.078  0.00  0.00    +0.000 C 
ATOM     17  C   UNL     1      -3.276 -35.304  -7.101  0.00  0.00    +0.000 C 
ATOM     18  C   UNL     1      -3.208 -34.056  -4.912  0.00  0.00    +0.000 C 
ATOM     19  C   UNL     1      -2.671 -34.159  -6.322  0.00  0.00    +0.000 C 
ENDROOT
TORSDOF 0
ENDMDL
MODEL 7
REMARK VINA RESULT:      -4.5     18.662     20.493
REMARK  Name = 
REMARK  0 active torsions:
REMARK  status: ('A' for Active; 'I' for Inactive)
REMARK                            x       y       z     vdW  Elec       q    Type
REMARK                         _______ _______ _______ _____ _____    ______ ____
ROOT
ATOM      1  O   UNL     1      -7.598 -36.206  -2.416  0.00  0.00    +0.000 OA
ATOM      2  O   UNL     1     -10.868 -33.078   0.165  0.00  0.00    +0.000 OA
ATOM      3  N   UNL     1      -7.817 -36.014  -3.752  0.00  0.00    +0.000 N 
ATOM      4  N   UNL     1      -9.407 -33.333  -1.611  0.00  0.00    +0.000 N 
ATOM      5  C   UNL     1      -8.639 -34.745  -4.048  0.00  0.00    +0.000 C 
ATOM      6  C   UNL     1      -7.927 -33.449  -3.611  0.00  0.00    +0.000 C 
ATOM      7  C   UNL     1     -10.067 -34.808  -3.495  0.00  0.00    +0.000 C 
ATOM      8  C   UNL     1      -8.005 -33.223  -2.074  0.00  0.00    +0.000 C 
ATOM      9  C   UNL     1      -6.515 -33.401  -4.223  0.00  0.00    +0.000 C 
ATOM     10  C   UNL     1     -10.106 -34.565  -1.987  0.00  0.00    +0.000 C 
ATOM     11  C   UNL     1      -6.472 -35.901  -4.438  0.00  0.00    +0.000 C 
ATOM     12  C   UNL     1     -10.779 -36.104  -3.907  0.00  0.00    +0.000 C 
ATOM     13  C   UNL     1      -8.558 -37.218  -4.295  0.00  0.00    +0.000 C 
ATOM     14  C   UNL     1      -5.710 -34.668  -3.966  0.00  0.00    +0.000 C 
ATOM     15  C   UNL     1      -9.939 -37.353  -3.666  0.00  0.00    +0.000 C 
ATOM     16  C   UNL     1      -7.372 -31.877  -1.688  0.00  0.00    +0.000 C 
ATOM     17  C   UNL     1      -7.609 -31.588  -0.218  0.00  0.00    +0.000 C 
ATOM     18  C   UNL     1      -9.845 -32.732  -0.429  0.00  0.00    +0.000 C 
ATOM     19  C   UNL     1      -9.097 -31.503   0.034  0.00  0.00    +0.000 C 
ENDROOT
TORSDOF 0
ENDMDL
MODEL 8
REMARK VINA RESULT:      -4.3     15.554     17.765
REMARK  Name = 
REMARK  0 active torsions:
REMARK  status: ('A' for Active; 'I' for Inactive)
REMARK                            x       y       z     vdW  Elec       q    Type
REMARK                         _______ _______ _______ _____ _____    ______ ____
ROOT
ATOM      1  O   UNL     1     -19.338 -16.319 -10.410  0.00  0.00    +0.000 OA
ATOM      2  O   UNL     1     -15.834 -13.151  -8.213  0.00  0.00    +0.000 OA
ATOM      3  N   UNL     1     -18.663 -17.408 -10.887  0.00  0.00    +0.000 N 
ATOM      4  N   UNL     1     -16.581 -15.320  -8.519  0.00  0.00    +0.000 N 
ATOM      5  C   UNL     1     -17.232 -17.520 -10.324  0.00  0.00    +0.000 C 
ATOM      6  C   UNL     1     -17.198 -17.717  -8.796  0.00  0.00    +0.000 C 
ATOM      7  C   UNL     1     -16.322 -16.364 -10.757  0.00  0.00    +0.000 C 
ATOM      8  C   UNL     1     -17.471 -16.394  -8.025  0.00  0.00    +0.000 C 
ATOM      9  C   UNL     1     -18.086 -18.913  -8.407  0.00  0.00    +0.000 C 
ATOM     10  C   UNL     1     -16.608 -15.088  -9.967  0.00  0.00    +0.000 C 
ATOM     11  C   UNL     1     -19.441 -18.649 -10.503  0.00  0.00    +0.000 C 
ATOM     12  C   UNL     1     -16.364 -16.145 -12.275  0.00  0.00    +0.000 C 
ATOM     13  C   UNL     1     -18.592 -17.306 -12.396  0.00  0.00    +0.000 C 
ATOM     14  C   UNL     1     -19.490 -18.827  -8.991  0.00  0.00    +0.000 C 
ATOM     15  C   UNL     1     -17.781 -16.093 -12.835  0.00  0.00    +0.000 C 
ATOM     16  C   UNL     1     -17.332 -16.608  -6.509  0.00  0.00    +0.000 C 
ATOM     17  C   UNL     1     -17.427 -15.281  -5.781  0.00  0.00    +0.000 C 
ATOM     18  C   UNL     1     -16.261 -14.206  -7.740  0.00  0.00    +0.000 C 
ATOM     19  C   UNL     1     -16.299 -14.386  -6.239  0.00  0.00    +0.000 C 
ENDROOT
TORSDOF 0
ENDMDL
MODEL 9
REMARK VINA RESULT:      -4.3     15.050     17.036
REMARK  Name = 
REMARK  0 active torsions:
REMARK  status: ('A' for Active; 'I' for Inactive)
REMARK                            x       y       z     vdW  Elec       q    Type
REMARK                         _______ _______ _______ _____ _____    ______ ____
ROOT
ATOM      1  O   UNL     1     -20.106 -16.701  -6.331  0.00  0.00    +0.000 OA
ATOM      2  O   UNL     1     -16.233 -14.368  -8.920  0.00  0.00    +0.000 OA
ATOM      3  N   UNL     1     -19.719 -17.989  -6.090  0.00  0.00    +0.000 N 
ATOM      4  N   UNL     1     -16.852 -15.787  -7.200  0.00  0.00    +0.000 N 
ATOM      5  C   UNL     1     -18.211 -18.214  -6.313  0.00  0.00    +0.000 C 
ATOM      6  C   UNL     1     -17.329 -17.389  -5.354  0.00  0.00    +0.000 C 
ATOM      7  C   UNL     1     -17.781 -18.018  -7.771  0.00  0.00    +0.000 C 
ATOM      8  C   UNL     1     -17.238 -15.895  -5.775  0.00  0.00    +0.000 C 
ATOM      9  C   UNL     1     -17.762 -17.649  -3.899  0.00  0.00    +0.000 C 
ATOM     10  C   UNL     1     -17.686 -16.538  -8.143  0.00  0.00    +0.000 C 
ATOM     11  C   UNL     1     -20.060 -18.322  -4.653  0.00  0.00    +0.000 C 
ATOM     12  C   UNL     1     -18.665 -18.818  -8.737  0.00  0.00    +0.000 C 
ATOM     13  C   UNL     1     -20.495 -18.904  -7.015  0.00  0.00    +0.000 C 
ATOM     14  C   UNL     1     -19.258 -17.465  -3.680  0.00  0.00    +0.000 C 
ATOM     15  C   UNL     1     -20.155 -18.638  -8.476  0.00  0.00    +0.000 C 
ATOM     16  C   UNL     1     -16.275 -15.127  -4.856  0.00  0.00    +0.000 C 
ATOM     17  C   UNL     1     -16.060 -13.720  -5.379  0.00  0.00    +0.000 C 
ATOM     18  C   UNL     1     -16.246 -14.641  -7.718  0.00  0.00    +0.000 C 
ATOM     19  C   UNL     1     -15.441 -13.796  -6.756  0.00  0.00    +0.000 C 
ENDROOT
TORSDOF 0
ENDMDL
