MODEL 1
REMARK VINA RESULT:      -5.5      0.000      0.000
REMARK  Name = 
REMARK  23 active torsions:
REMARK  status: ('A' for Active; 'I' for Inactive)
REMARK    1  A    between atoms: O_2  and  C_17
REMARK    2  A    between atoms: O_2  and  C_36
REMARK    3  A    between atoms: O_3  and  C_20
REMARK    4  A    between atoms: O_3  and  C_37
REMARK    5  A    between atoms: O_4  and  C_21
REMARK    6  A    between atoms: O_5  and  C_22
REMARK    7  A    between atoms: O_6  and  C_30
REMARK    8  A    between atoms: O_6  and  C_39
REMARK    9  A    between atoms: O_8  and  C_31
REMARK   10  A    between atoms: O_8  and  C_40
REMARK   11  A    between atoms: O_13  and  C_42
REMARK   12  A    between atoms: N_15  and  C_46
REMARK   13  A    between atoms: C_18  and  C_29
REMARK   14  A    between atoms: C_24  and  C_33
REMARK   15  A    between atoms: C_24  and  C_34
REMARK   16  A    between atoms: C_32  and  C_35
REMARK   17  A    between atoms: C_36  and  C_38
REMARK   18  A    between atoms: C_37  and  C_41
REMARK   19  A    between atoms: C_39  and  C_43
REMARK   20  A    between atoms: C_40  and  C_42
REMARK   21  A    between atoms: C_42  and  C_46
REMARK   22  A    between atoms: C_46  and  C_50
REMARK   23  A    between atoms: C_53  and  C_56
REMARK                            x       y       z     vdW  Elec       q    Type
REMARK                         _______ _______ _______ _____ _____    ______ ____
ROOT
ATOM      1  O   UNL     1     -12.001 -36.500  -6.906  0.00  0.00    +0.000 OA
ATOM      2  O   UNL     1     -12.556 -36.073  -0.275  0.00  0.00    +0.000 OA
ATOM      3  C   UNL     1     -10.619 -35.139  -4.064  0.00  0.00    +0.000 C 
ATOM      4  C   UNL     1     -10.623 -36.038  -5.335  0.00  0.00    +0.000 C 
ATOM      5  C   UNL     1     -11.340 -36.177  -2.649  0.00  0.00    +0.000 C 
ATOM      6  C   UNL     1     -12.194 -36.128  -5.513  0.00  0.00    +0.000 C 
ATOM      7  C   UNL     1      -9.021 -34.195  -3.882  0.00  0.00    +0.000 C 
ATOM      8  C   UNL     1      -8.132 -32.995  -2.717  0.00  0.00    +0.000 C 
ATOM      9  C   UNL     1     -12.804 -36.539  -3.141  0.00  0.00    +0.000 C 
ATOM     10  C   UNL     1     -12.908 -37.092  -4.595  0.00  0.00    +0.000 C 
ATOM     11  C   UNL     1      -8.573 -32.528  -1.064  0.00  0.00    +0.000 C 
ATOM     12  C   UNL     1     -10.788 -35.654  -6.858  0.00  0.00    +0.000 C 
ATOM     13  C   UNL     1     -11.513 -35.681  -0.842  0.00  0.00    +0.000 C 
ATOM     14  C   UNL     1      -6.695 -33.637  -2.444  0.00  0.00    +0.000 C 
ATOM     15  C   UNL     1      -8.766 -33.808  -0.113  0.00  0.00    +0.000 C 
ATOM     16  C   UNL     1     -10.648 -37.598  -2.522  0.00  0.00    +0.000 C 
ATOM     17  C   UNL     1     -10.320 -34.637   0.243  0.00  0.00    +0.000 C 
ATOM     18  C   UNL     1      -6.492 -34.508  -1.123  0.00  0.00    +0.000 C 
ATOM     19  C   UNL     1      -7.607 -34.543  -0.014  0.00  0.00    +0.000 C 
ATOM     20  C   UNL     1      -7.328 -31.688  -0.483  0.00  0.00    +0.000 C 
ATOM     21  C   UNL     1      -9.619 -31.388  -0.846  0.00  0.00    +0.000 C 
ATOM     22  C   UNL     1      -7.428 -35.637   1.009  0.00  0.00    +0.000 C 
ENDROOT
BRANCH   9  23
ATOM     23  O   UNL     1     -13.618 -35.369  -3.083  0.00  0.00    +0.000 OA
ATOM     24  H   UNL     1     -14.546 -35.679  -3.072  0.00  0.00    +0.000 HD
ENDBRANCH   9  23
BRANCH   8  25
ATOM     25  O   UNL     1      -7.909 -31.800  -3.490  0.00  0.00    +0.000 OA
ATOM     26  H   UNL     1      -8.759 -31.500  -3.855  0.00  0.00    +0.000 HD
ENDBRANCH   8  25
BRANCH  18  27
ATOM     27  O   UNL     1      -6.270 -35.891  -1.526  0.00  0.00    +0.000 OA
BRANCH  27  29
ATOM     28  O   UNL     1      -4.263 -36.057  -2.557  0.00  0.00    +0.000 OA
ATOM     29  C   UNL     1      -4.981 -36.311  -1.596  0.00  0.00    +0.000 C 
BRANCH  29  30
ATOM     30  C   UNL     1      -4.557 -37.252  -0.464  0.00  0.00    +0.000 C 
BRANCH  30  31
ATOM     31  O   UNL     1      -3.661 -36.687   0.500  0.00  0.00    +0.000 OA
ATOM     32  H   UNL     1      -4.195 -36.073   1.037  0.00  0.00    +0.000 HD
ENDBRANCH  30  31
BRANCH  30  33
ATOM     33  C   UNL     1      -3.939 -38.527  -1.102  0.00  0.00    +0.000 C 
BRANCH  33  34
ATOM     34  C   UNL     1      -4.704 -39.770  -0.669  0.00  0.00    +0.000 A 
ATOM     35  C   UNL     1      -5.853 -39.630   0.128  0.00  0.00    +0.000 A 
ATOM     36  C   UNL     1      -4.280 -41.063  -1.014  0.00  0.00    +0.000 A 
ATOM     37  C   UNL     1      -6.568 -40.751   0.552  0.00  0.00    +0.000 A 
ATOM     38  C   UNL     1      -4.998 -42.183  -0.591  0.00  0.00    +0.000 A 
ATOM     39  C   UNL     1      -6.142 -42.027   0.189  0.00  0.00    +0.000 A 
ENDBRANCH  33  34
BRANCH  33  41
ATOM     40  O   UNL     1      -0.336 -38.208  -1.089  0.00  0.00    +0.000 OA
ATOM     41  N   UNL     1      -2.516 -38.636  -0.753  0.00  0.00    +0.000 N 
ATOM     42  C   UNL     1      -1.420 -38.535  -1.564  0.00  0.00    +0.000 C 
ATOM     43  H   UNL     1      -2.309 -38.497   0.232  0.00  0.00    +0.000 HD
BRANCH  42  44
ATOM     44  C   UNL     1      -1.539 -38.770  -3.021  0.00  0.00    +0.000 A 
ATOM     45  C   UNL     1      -1.629 -37.708  -3.926  0.00  0.00    +0.000 A 
ATOM     46  C   UNL     1      -1.635 -40.089  -3.479  0.00  0.00    +0.000 A 
ATOM     47  C   UNL     1      -1.751 -37.968  -5.292  0.00  0.00    +0.000 A 
ATOM     48  C   UNL     1      -1.760 -40.346  -4.844  0.00  0.00    +0.000 A 
ATOM     49  C   UNL     1      -1.808 -39.285  -5.750  0.00  0.00    +0.000 A 
ENDBRANCH  42  44
ENDBRANCH  33  41
ENDBRANCH  30  33
ENDBRANCH  29  30
ENDBRANCH  27  29
ENDBRANCH  18  27
BRANCH  17  50
ATOM     50  O   UNL     1     -11.019 -33.697   1.086  0.00  0.00    +0.000 OA
BRANCH  50  52
ATOM     51  O   UNL     1     -12.311 -34.286   2.817  0.00  0.00    +0.000 OA
ATOM     52  C   UNL     1     -11.220 -33.898   2.408  0.00  0.00    +0.000 C 
ATOM     53  C   UNL     1     -10.106 -33.546   3.348  0.00  0.00    +0.000 C 
ENDBRANCH  50  52
ENDBRANCH  17  50
BRANCH   7  54
ATOM     54  O   UNL     1      -8.632 -35.186  -3.107  0.00  0.00    +0.000 OA
BRANCH  54  56
ATOM     55  O   UNL     1      -7.850 -34.724  -4.899  0.00  0.00    +0.000 OA
ATOM     56  C   UNL     1      -7.754 -35.623  -4.070  0.00  0.00    +0.000 C 
BRANCH  56  57
ATOM     57  C   UNL     1      -6.959 -37.364  -4.089  0.00  0.00    +0.000 A 
ATOM     58  C   UNL     1      -7.429 -38.515  -3.322  0.00  0.00    +0.000 A 
ATOM     59  C   UNL     1      -5.901 -37.826  -4.930  0.00  0.00    +0.000 A 
ATOM     60  C   UNL     1      -6.944 -39.846  -3.388  0.00  0.00    +0.000 A 
ATOM     61  C   UNL     1      -5.400 -39.156  -5.010  0.00  0.00    +0.000 A 
ATOM     62  C   UNL     1      -5.922 -40.170  -4.242  0.00  0.00    +0.000 A 
ENDBRANCH  56  57
ENDBRANCH  54  56
ENDBRANCH   7  54
BRANCH   4  63
ATOM     63  O   UNL     1      -9.974 -37.312  -5.108  0.00  0.00    +0.000 OA
BRANCH  63  65
ATOM     64  O   UNL     1      -8.818 -37.789  -6.962  0.00  0.00    +0.000 OA
ATOM     65  C   UNL     1      -9.597 -38.165  -6.087  0.00  0.00    +0.000 C 
ATOM     66  C   UNL     1     -10.223 -39.521  -6.162  0.00  0.00    +0.000 C 
ENDBRANCH  63  65
ENDBRANCH   4  63
TORSDOF 17
ENDMDL
MODEL 2
REMARK VINA RESULT:      -5.4      2.601      5.400
REMARK  Name = 
REMARK  23 active torsions:
REMARK  status: ('A' for Active; 'I' for Inactive)
REMARK    1  A    between atoms: O_2  and  C_17
REMARK    2  A    between atoms: O_2  and  C_36
REMARK    3  A    between atoms: O_3  and  C_20
REMARK    4  A    between atoms: O_3  and  C_37
REMARK    5  A    between atoms: O_4  and  C_21
REMARK    6  A    between atoms: O_5  and  C_22
REMARK    7  A    between atoms: O_6  and  C_30
REMARK    8  A    between atoms: O_6  and  C_39
REMARK    9  A    between atoms: O_8  and  C_31
REMARK   10  A    between atoms: O_8  and  C_40
REMARK   11  A    between atoms: O_13  and  C_42
REMARK   12  A    between atoms: N_15  and  C_46
REMARK   13  A    between atoms: C_18  and  C_29
REMARK   14  A    between atoms: C_24  and  C_33
REMARK   15  A    between atoms: C_24  and  C_34
REMARK   16  A    between atoms: C_32  and  C_35
REMARK   17  A    between atoms: C_36  and  C_38
REMARK   18  A    between atoms: C_37  and  C_41
REMARK   19  A    between atoms: C_39  and  C_43
REMARK   20  A    between atoms: C_40  and  C_42
REMARK   21  A    between atoms: C_42  and  C_46
REMARK   22  A    between atoms: C_46  and  C_50
REMARK   23  A    between atoms: C_53  and  C_56
REMARK                            x       y       z     vdW  Elec       q    Type
REMARK                         _______ _______ _______ _____ _____    ______ ____
ROOT
ATOM      1  O   UNL     1      -2.827 -34.976  -7.208  0.00  0.00    +0.000 OA
ATOM      2  O   UNL     1      -9.387 -36.124  -6.890  0.00  0.00    +0.000 OA
ATOM      3  C   UNL     1      -5.582 -34.915  -5.148  0.00  0.00    +0.000 C 
ATOM      4  C   UNL     1      -4.176 -35.404  -5.602  0.00  0.00    +0.000 C 
ATOM      5  C   UNL     1      -6.860 -35.994  -6.042  0.00  0.00    +0.000 C 
ATOM      6  C   UNL     1      -4.277 -34.935  -7.111  0.00  0.00    +0.000 C 
ATOM      7  C   UNL     1      -5.655 -34.615  -3.308  0.00  0.00    +0.000 C 
ATOM      8  C   UNL     1      -6.858 -34.108  -1.936  0.00  0.00    +0.000 C 
ATOM      9  C   UNL     1      -6.584 -35.727  -7.581  0.00  0.00    +0.000 C 
ATOM     10  C   UNL     1      -5.092 -35.821  -8.024  0.00  0.00    +0.000 C 
ATOM     11  C   UNL     1      -8.625 -33.969  -2.009  0.00  0.00    +0.000 C 
ATOM     12  C   UNL     1      -2.823 -34.607  -5.775  0.00  0.00    +0.000 C 
ATOM     13  C   UNL     1      -8.730 -35.955  -5.840  0.00  0.00    +0.000 C 
ATOM     14  C   UNL     1      -6.720 -35.225  -0.802  0.00  0.00    +0.000 C 
ATOM     15  C   UNL     1      -9.308 -35.319  -2.546  0.00  0.00    +0.000 C 
ATOM     16  C   UNL     1      -6.558 -37.544  -5.893  0.00  0.00    +0.000 C 
ATOM     17  C   UNL     1      -9.767 -35.668  -4.249  0.00  0.00    +0.000 C 
ATOM     18  C   UNL     1      -7.771 -36.426  -0.788  0.00  0.00    +0.000 C 
ATOM     19  C   UNL     1      -9.036 -36.386  -1.722  0.00  0.00    +0.000 C 
ATOM     20  C   UNL     1      -9.125 -33.754  -0.493  0.00  0.00    +0.000 C 
ATOM     21  C   UNL     1      -9.264 -32.650  -2.552  0.00  0.00    +0.000 C 
ATOM     22  C   UNL     1      -9.758 -37.705  -1.841  0.00  0.00    +0.000 C 
ENDROOT
BRANCH   9  23
ATOM     23  O   UNL     1      -7.034 -34.415  -7.914  0.00  0.00    +0.000 OA
ATOM     24  H   UNL     1      -6.255 -33.829  -7.837  0.00  0.00    +0.000 HD
ENDBRANCH   9  23
BRANCH   8  25
ATOM     25  O   UNL     1      -6.322 -32.891  -1.381  0.00  0.00    +0.000 OA
ATOM     26  H   UNL     1      -5.503 -32.666  -1.856  0.00  0.00    +0.000 HD
ENDBRANCH   8  25
BRANCH  18  27
ATOM     27  O   UNL     1      -7.056 -37.653  -1.116  0.00  0.00    +0.000 OA
BRANCH  27  29
ATOM     28  O   UNL     1      -5.785 -37.998   0.724  0.00  0.00    +0.000 OA
ATOM     29  C   UNL     1      -6.621 -38.408  -0.075  0.00  0.00    +0.000 C 
BRANCH  29  30
ATOM     30  C   UNL     1      -7.135 -39.850  -0.078  0.00  0.00    +0.000 C 
BRANCH  30  31
ATOM     31  O   UNL     1      -8.323 -40.080   0.689  0.00  0.00    +0.000 OA
ATOM     32  H   UNL     1      -8.917 -39.331   0.497  0.00  0.00    +0.000 HD
ENDBRANCH  30  31
BRANCH  30  33
ATOM     33  C   UNL     1      -5.985 -40.774   0.409  0.00  0.00    +0.000 C 
BRANCH  33  34
ATOM     34  C   UNL     1      -6.052 -42.127  -0.285  0.00  0.00    +0.000 A 
ATOM     35  C   UNL     1      -5.149 -43.139   0.085  0.00  0.00    +0.000 A 
ATOM     36  C   UNL     1      -6.970 -42.392  -1.314  0.00  0.00    +0.000 A 
ATOM     37  C   UNL     1      -5.178 -44.385  -0.542  0.00  0.00    +0.000 A 
ATOM     38  C   UNL     1      -6.999 -43.639  -1.938  0.00  0.00    +0.000 A 
ATOM     39  C   UNL     1      -6.104 -44.636  -1.552  0.00  0.00    +0.000 A 
ENDBRANCH  33  34
BRANCH  33  41
ATOM     40  O   UNL     1      -5.398 -40.398   3.958  0.00  0.00    +0.000 OA
ATOM     41  N   UNL     1      -6.034 -40.928   1.868  0.00  0.00    +0.000 N 
ATOM     42  C   UNL     1      -5.074 -40.638   2.798  0.00  0.00    +0.000 C 
ATOM     43  H   UNL     1      -6.970 -40.995   2.256  0.00  0.00    +0.000 HD
BRANCH  42  44
ATOM     44  C   UNL     1      -3.648 -40.563   2.407  0.00  0.00    +0.000 A 
ATOM     45  C   UNL     1      -3.064 -39.358   2.004  0.00  0.00    +0.000 A 
ATOM     46  C   UNL     1      -2.900 -41.746   2.377  0.00  0.00    +0.000 A 
ATOM     47  C   UNL     1      -1.719 -39.327   1.632  0.00  0.00    +0.000 A 
ATOM     48  C   UNL     1      -1.557 -41.713   2.002  0.00  0.00    +0.000 A 
ATOM     49  C   UNL     1      -0.966 -40.502   1.639  0.00  0.00    +0.000 A 
ENDBRANCH  42  44
ENDBRANCH  33  41
ENDBRANCH  30  33
ENDBRANCH  29  30
ENDBRANCH  27  29
ENDBRANCH  18  27
BRANCH  17  50
ATOM     50  O   UNL     1     -10.902 -34.804  -4.476  0.00  0.00    +0.000 OA
BRANCH  50  52
ATOM     51  O   UNL     1     -12.650 -34.867  -5.873  0.00  0.00    +0.000 OA
ATOM     52  C   UNL     1     -12.120 -35.266  -4.840  0.00  0.00    +0.000 C 
ATOM     53  C   UNL     1     -12.825 -36.200  -3.903  0.00  0.00    +0.000 C 
ENDBRANCH  50  52
ENDBRANCH  17  50
BRANCH   7  54
ATOM     54  O   UNL     1      -6.123 -35.842  -3.221  0.00  0.00    +0.000 OA
BRANCH  54  56
ATOM     55  O   UNL     1      -4.316 -35.224  -2.597  0.00  0.00    +0.000 OA
ATOM     56  C   UNL     1      -4.932 -36.280  -2.690  0.00  0.00    +0.000 C 
BRANCH  56  57
ATOM     57  C   UNL     1      -4.436 -38.122  -2.535  0.00  0.00    +0.000 A 
ATOM     58  C   UNL     1      -4.987 -39.215  -3.334  0.00  0.00    +0.000 A 
ATOM     59  C   UNL     1      -3.391 -38.676  -1.735  0.00  0.00    +0.000 A 
ATOM     60  C   UNL     1      -4.573 -40.570  -3.334  0.00  0.00    +0.000 A 
ATOM     61  C   UNL     1      -2.962 -40.033  -1.719  0.00  0.00    +0.000 A 
ATOM     62  C   UNL     1      -3.549 -40.983  -2.521  0.00  0.00    +0.000 A 
ENDBRANCH  56  57
ENDBRANCH  54  56
ENDBRANCH   7  54
BRANCH   4  63
ATOM     63  O   UNL     1      -4.009 -36.831  -5.431  0.00  0.00    +0.000 OA
BRANCH  63  65
ATOM     64  O   UNL     1      -2.786 -38.172  -6.736  0.00  0.00    +0.000 OA
ATOM     65  C   UNL     1      -2.871 -37.508  -5.704  0.00  0.00    +0.000 C 
ATOM     66  C   UNL     1      -1.771 -37.537  -4.691  0.00  0.00    +0.000 C 
ENDBRANCH  63  65
ENDBRANCH   4  63
TORSDOF 17
ENDMDL
MODEL 3
REMARK VINA RESULT:      -5.3      1.660      2.502
REMARK  Name = 
REMARK  23 active torsions:
REMARK  status: ('A' for Active; 'I' for Inactive)
REMARK    1  A    between atoms: O_2  and  C_17
REMARK    2  A    between atoms: O_2  and  C_36
REMARK    3  A    between atoms: O_3  and  C_20
REMARK    4  A    between atoms: O_3  and  C_37
REMARK    5  A    between atoms: O_4  and  C_21
REMARK    6  A    between atoms: O_5  and  C_22
REMARK    7  A    between atoms: O_6  and  C_30
REMARK    8  A    between atoms: O_6  and  C_39
REMARK    9  A    between atoms: O_8  and  C_31
REMARK   10  A    between atoms: O_8  and  C_40
REMARK   11  A    between atoms: O_13  and  C_42
REMARK   12  A    between atoms: N_15  and  C_46
REMARK   13  A    between atoms: C_18  and  C_29
REMARK   14  A    between atoms: C_24  and  C_33
REMARK   15  A    between atoms: C_24  and  C_34
REMARK   16  A    between atoms: C_32  and  C_35
REMARK   17  A    between atoms: C_36  and  C_38
REMARK   18  A    between atoms: C_37  and  C_41
REMARK   19  A    between atoms: C_39  and  C_43
REMARK   20  A    between atoms: C_40  and  C_42
REMARK   21  A    between atoms: C_42  and  C_46
REMARK   22  A    between atoms: C_46  and  C_50
REMARK   23  A    between atoms: C_53  and  C_56
REMARK                            x       y       z     vdW  Elec       q    Type
REMARK                         _______ _______ _______ _____ _____    ______ ____
ROOT
ATOM      1  O   UNL     1     -12.535 -36.288  -6.956  0.00  0.00    +0.000 OA
ATOM      2  O   UNL     1     -12.250 -36.180  -0.296  0.00  0.00    +0.000 OA
ATOM      3  C   UNL     1     -10.718 -35.184  -4.250  0.00  0.00    +0.000 C 
ATOM      4  C   UNL     1     -10.945 -36.011  -5.550  0.00  0.00    +0.000 C 
ATOM      5  C   UNL     1     -11.342 -36.242  -2.804  0.00  0.00    +0.000 C 
ATOM      6  C   UNL     1     -12.528 -35.978  -5.535  0.00  0.00    +0.000 C 
ATOM      7  C   UNL     1      -9.041 -34.368  -4.227  0.00  0.00    +0.000 C 
ATOM      8  C   UNL     1      -7.929 -33.299  -3.128  0.00  0.00    +0.000 C 
ATOM      9  C   UNL     1     -12.878 -36.473  -3.127  0.00  0.00    +0.000 C 
ATOM     10  C   UNL     1     -13.200 -36.937  -4.579  0.00  0.00    +0.000 C 
ATOM     11  C   UNL     1      -8.129 -32.892  -1.414  0.00  0.00    +0.000 C 
ATOM     12  C   UNL     1     -11.263 -35.535  -7.022  0.00  0.00    +0.000 C 
ATOM     13  C   UNL     1     -11.257 -35.834  -0.970  0.00  0.00    +0.000 C 
ATOM     14  C   UNL     1      -6.523 -34.056  -3.065  0.00  0.00    +0.000 C 
ATOM     15  C   UNL     1      -8.305 -34.204  -0.505  0.00  0.00    +0.000 C 
ATOM     16  C   UNL     1     -10.752 -37.714  -2.828  0.00  0.00    +0.000 C 
ATOM     17  C   UNL     1      -9.864 -34.938   0.005  0.00  0.00    +0.000 C 
ATOM     18  C   UNL     1      -6.231 -35.010  -1.819  0.00  0.00    +0.000 C 
ATOM     19  C   UNL     1      -7.203 -35.024  -0.583  0.00  0.00    +0.000 C 
ATOM     20  C   UNL     1      -6.761 -32.175  -0.955  0.00  0.00    +0.000 C 
ATOM     21  C   UNL     1      -9.050 -31.693  -1.017  0.00  0.00    +0.000 C 
ATOM     22  C   UNL     1      -6.987 -36.182   0.359  0.00  0.00    +0.000 C 
ENDROOT
BRANCH   9  23
ATOM     23  O   UNL     1     -13.586 -35.252  -2.915  0.00  0.00    +0.000 OA
ATOM     24  H   UNL     1     -13.355 -34.666  -3.664  0.00  0.00    +0.000 HD
ENDBRANCH   9  23
BRANCH   8  25
ATOM     25  O   UNL     1      -7.708 -32.084  -3.868  0.00  0.00    +0.000 OA
ATOM     26  H   UNL     1      -7.006 -31.572  -3.428  0.00  0.00    +0.000 HD
ENDBRANCH   8  25
BRANCH  18  27
ATOM     27  O   UNL     1      -6.167 -36.381  -2.309  0.00  0.00    +0.000 OA
BRANCH  27  29
ATOM     28  O   UNL     1      -4.724 -37.743  -3.398  0.00  0.00    +0.000 OA
ATOM     29  C   UNL     1      -4.930 -36.895  -2.536  0.00  0.00    +0.000 C 
BRANCH  29  30
ATOM     30  C   UNL     1      -3.864 -36.453  -1.529  0.00  0.00    +0.000 C 
BRANCH  30  31
ATOM     31  O   UNL     1      -2.819 -35.633  -2.064  0.00  0.00    +0.000 OA
ATOM     32  H   UNL     1      -2.711 -35.905  -2.994  0.00  0.00    +0.000 HD
ENDBRANCH  30  31
BRANCH  30  33
ATOM     33  C   UNL     1      -3.272 -37.725  -0.863  0.00  0.00    +0.000 C 
BRANCH  33  34
ATOM     34  C   UNL     1      -3.725 -37.833   0.587  0.00  0.00    +0.000 A 
ATOM     35  C   UNL     1      -3.259 -36.897   1.527  0.00  0.00    +0.000 A 
ATOM     36  C   UNL     1      -4.573 -38.861   1.027  0.00  0.00    +0.000 A 
ATOM     37  C   UNL     1      -3.646 -36.978   2.865  0.00  0.00    +0.000 A 
ATOM     38  C   UNL     1      -4.960 -38.939   2.366  0.00  0.00    +0.000 A 
ATOM     39  C   UNL     1      -4.499 -37.997   3.284  0.00  0.00    +0.000 A 
ENDBRANCH  33  34
BRANCH  33  41
ATOM     40  O   UNL     1       0.183 -38.721  -1.254  0.00  0.00    +0.000 OA
ATOM     41  N   UNL     1      -1.806 -37.718  -0.957  0.00  0.00    +0.000 N 
ATOM     42  C   UNL     1      -0.923 -38.736  -0.722  0.00  0.00    +0.000 C 
ATOM     43  H   UNL     1      -1.421 -36.966  -1.520  0.00  0.00    +0.000 HD
BRANCH  42  44
ATOM     44  C   UNL     1      -1.308 -39.882   0.132  0.00  0.00    +0.000 A 
ATOM     45  C   UNL     1      -1.038 -39.893   1.504  0.00  0.00    +0.000 A 
ATOM     46  C   UNL     1      -1.892 -41.001  -0.474  0.00  0.00    +0.000 A 
ATOM     47  C   UNL     1      -1.407 -40.995   2.277  0.00  0.00    +0.000 A 
ATOM     48  C   UNL     1      -2.257 -42.103   0.300  0.00  0.00    +0.000 A 
ATOM     49  C   UNL     1      -2.023 -42.094   1.676  0.00  0.00    +0.000 A 
ENDBRANCH  42  44
ENDBRANCH  33  41
ENDBRANCH  30  33
ENDBRANCH  29  30
ENDBRANCH  27  29
ENDBRANCH  18  27
BRANCH  17  50
ATOM     50  O   UNL     1     -10.382 -33.997   0.969  0.00  0.00    +0.000 OA
BRANCH  50  52
ATOM     51  O   UNL     1     -11.509 -34.500   2.836  0.00  0.00    +0.000 OA
ATOM     52  C   UNL     1     -10.435 -34.253   2.296  0.00  0.00    +0.000 C 
ATOM     53  C   UNL     1      -9.165 -34.136   3.084  0.00  0.00    +0.000 C 
ENDBRANCH  50  52
ENDBRANCH  17  50
BRANCH   7  54
ATOM     54  O   UNL     1      -8.640 -35.424  -3.550  0.00  0.00    +0.000 OA
BRANCH  54  56
ATOM     55  O   UNL     1      -7.969 -34.903  -5.371  0.00  0.00    +0.000 OA
ATOM     56  C   UNL     1      -7.957 -35.893  -4.647  0.00  0.00    +0.000 C 
BRANCH  56  57
ATOM     57  C   UNL     1      -7.497 -37.730  -4.924  0.00  0.00    +0.000 A 
ATOM     58  C   UNL     1      -6.699 -38.243  -6.036  0.00  0.00    +0.000 A 
ATOM     59  C   UNL     1      -7.741 -38.828  -4.044  0.00  0.00    +0.000 A 
ATOM     60  C   UNL     1      -6.241 -39.571  -6.221  0.00  0.00    +0.000 A 
ATOM     61  C   UNL     1      -7.291 -40.168  -4.214  0.00  0.00    +0.000 A 
ATOM     62  C   UNL     1      -6.537 -40.542  -5.301  0.00  0.00    +0.000 A 
ENDBRANCH  56  57
ENDBRANCH  54  56
ENDBRANCH   7  54
BRANCH   4  63
ATOM     63  O   UNL     1     -10.375 -37.338  -5.463  0.00  0.00    +0.000 OA
BRANCH  63  65
ATOM     64  O   UNL     1      -9.766 -37.955  -7.524  0.00  0.00    +0.000 OA
ATOM     65  C   UNL     1     -10.351 -38.231  -6.478  0.00  0.00    +0.000 C 
ATOM     66  C   UNL     1     -11.139 -39.497  -6.362  0.00  0.00    +0.000 C 
ENDBRANCH  63  65
ENDBRANCH   4  63
TORSDOF 17
ENDMDL
MODEL 4
REMARK VINA RESULT:      -5.3      1.911      3.033
REMARK  Name = 
REMARK  23 active torsions:
REMARK  status: ('A' for Active; 'I' for Inactive)
REMARK    1  A    between atoms: O_2  and  C_17
REMARK    2  A    between atoms: O_2  and  C_36
REMARK    3  A    between atoms: O_3  and  C_20
REMARK    4  A    between atoms: O_3  and  C_37
REMARK    5  A    between atoms: O_4  and  C_21
REMARK    6  A    between atoms: O_5  and  C_22
REMARK    7  A    between atoms: O_6  and  C_30
REMARK    8  A    between atoms: O_6  and  C_39
REMARK    9  A    between atoms: O_8  and  C_31
REMARK   10  A    between atoms: O_8  and  C_40
REMARK   11  A    between atoms: O_13  and  C_42
REMARK   12  A    between atoms: N_15  and  C_46
REMARK   13  A    between atoms: C_18  and  C_29
REMARK   14  A    between atoms: C_24  and  C_33
REMARK   15  A    between atoms: C_24  and  C_34
REMARK   16  A    between atoms: C_32  and  C_35
REMARK   17  A    between atoms: C_36  and  C_38
REMARK   18  A    between atoms: C_37  and  C_41
REMARK   19  A    between atoms: C_39  and  C_43
REMARK   20  A    between atoms: C_40  and  C_42
REMARK   21  A    between atoms: C_42  and  C_46
REMARK   22  A    between atoms: C_46  and  C_50
REMARK   23  A    between atoms: C_53  and  C_56
REMARK                            x       y       z     vdW  Elec       q    Type
REMARK                         _______ _______ _______ _____ _____    ______ ____
ROOT
ATOM      1  O   UNL     1     -12.129 -36.382  -7.209  0.00  0.00    +0.000 OA
ATOM      2  O   UNL     1     -12.433 -36.065  -0.556  0.00  0.00    +0.000 OA
ATOM      3  C   UNL     1     -10.547 -35.209  -4.387  0.00  0.00    +0.000 C 
ATOM      4  C   UNL     1     -10.667 -36.074  -5.676  0.00  0.00    +0.000 C 
ATOM      5  C   UNL     1     -11.308 -36.215  -2.970  0.00  0.00    +0.000 C 
ATOM      6  C   UNL     1     -12.245 -36.027  -5.803  0.00  0.00    +0.000 C 
ATOM      7  C   UNL     1      -8.869 -34.407  -4.240  0.00  0.00    +0.000 C 
ATOM      8  C   UNL     1      -7.846 -33.313  -3.081  0.00  0.00    +0.000 C 
ATOM      9  C   UNL     1     -12.811 -36.442  -3.421  0.00  0.00    +0.000 C 
ATOM     10  C   UNL     1     -13.009 -36.949  -4.881  0.00  0.00    +0.000 C 
ATOM     11  C   UNL     1      -8.192 -32.850  -1.404  0.00  0.00    +0.000 C 
ATOM     12  C   UNL     1     -10.848 -35.642  -7.185  0.00  0.00    +0.000 C 
ATOM     13  C   UNL     1     -11.380 -35.750  -1.149  0.00  0.00    +0.000 C 
ATOM     14  C   UNL     1      -6.460 -34.080  -2.870  0.00  0.00    +0.000 C 
ATOM     15  C   UNL     1      -8.462 -34.131  -0.475  0.00  0.00    +0.000 C 
ATOM     16  C   UNL     1     -10.735 -37.691  -2.897  0.00  0.00    +0.000 C 
ATOM     17  C   UNL     1     -10.069 -34.835  -0.083  0.00  0.00    +0.000 C 
ATOM     18  C   UNL     1      -6.290 -34.996  -1.575  0.00  0.00    +0.000 C 
ATOM     19  C   UNL     1      -7.367 -34.963  -0.430  0.00  0.00    +0.000 C 
ATOM     20  C   UNL     1      -6.862 -32.131  -0.849  0.00  0.00    +0.000 C 
ATOM     21  C   UNL     1      -9.131 -31.631  -1.128  0.00  0.00    +0.000 C 
ATOM     22  C   UNL     1      -7.249 -36.092   0.563  0.00  0.00    +0.000 C 
ENDROOT
BRANCH   9  23
ATOM     23  O   UNL     1     -13.521 -35.208  -3.310  0.00  0.00    +0.000 OA
ATOM     24  H   UNL     1     -13.807 -34.973  -4.216  0.00  0.00    +0.000 HD
ENDBRANCH   9  23
BRANCH   8  25
ATOM     25  O   UNL     1      -7.546 -32.123  -3.836  0.00  0.00    +0.000 OA
ATOM     26  H   UNL     1      -8.010 -32.170  -4.690  0.00  0.00    +0.000 HD
ENDBRANCH   8  25
BRANCH  18  27
ATOM     27  O   UNL     1      -6.198 -36.383  -2.014  0.00  0.00    +0.000 OA
BRANCH  27  29
ATOM     28  O   UNL     1      -4.852 -37.584  -3.380  0.00  0.00    +0.000 OA
ATOM     29  C   UNL     1      -4.981 -36.816  -2.432  0.00  0.00    +0.000 C 
BRANCH  29  30
ATOM     30  C   UNL     1      -3.815 -36.398  -1.531  0.00  0.00    +0.000 C 
BRANCH  30  31
ATOM     31  O   UNL     1      -2.766 -35.672  -2.183  0.00  0.00    +0.000 OA
ATOM     32  H   UNL     1      -2.723 -34.804  -1.740  0.00  0.00    +0.000 HD
ENDBRANCH  30  31
BRANCH  30  33
ATOM     33  C   UNL     1      -3.251 -37.675  -0.849  0.00  0.00    +0.000 C 
BRANCH  33  34
ATOM     34  C   UNL     1      -3.730 -37.769   0.593  0.00  0.00    +0.000 A 
ATOM     35  C   UNL     1      -4.670 -38.753   0.946  0.00  0.00    +0.000 A 
ATOM     36  C   UNL     1      -3.285 -36.881   1.585  0.00  0.00    +0.000 A 
ATOM     37  C   UNL     1      -5.138 -38.855   2.257  0.00  0.00    +0.000 A 
ATOM     38  C   UNL     1      -3.752 -36.986   2.895  0.00  0.00    +0.000 A 
ATOM     39  C   UNL     1      -4.677 -37.974   3.232  0.00  0.00    +0.000 A 
ENDBRANCH  33  34
BRANCH  33  41
ATOM     40  O   UNL     1       0.195 -38.714  -1.205  0.00  0.00    +0.000 OA
ATOM     41  N   UNL     1      -1.784 -37.688  -0.918  0.00  0.00    +0.000 N 
ATOM     42  C   UNL     1      -0.920 -38.725  -0.692  0.00  0.00    +0.000 C 
ATOM     43  H   UNL     1      -1.378 -36.930  -1.458  0.00  0.00    +0.000 HD
BRANCH  42  44
ATOM     44  C   UNL     1      -1.337 -39.884   0.129  0.00  0.00    +0.000 A 
ATOM     45  C   UNL     1      -1.997 -40.979  -0.438  0.00  0.00    +0.000 A 
ATOM     46  C   UNL     1      -1.123 -39.836   1.511  0.00  0.00    +0.000 A 
ATOM     47  C   UNL     1      -2.385 -42.050   0.369  0.00  0.00    +0.000 A 
ATOM     48  C   UNL     1      -1.514 -40.906   2.315  0.00  0.00    +0.000 A 
ATOM     49  C   UNL     1      -2.136 -42.016   1.742  0.00  0.00    +0.000 A 
ENDBRANCH  42  44
ENDBRANCH  33  41
ENDBRANCH  30  33
ENDBRANCH  29  30
ENDBRANCH  27  29
ENDBRANCH  18  27
BRANCH  17  50
ATOM     50  O   UNL     1     -10.659 -33.859   0.802  0.00  0.00    +0.000 OA
BRANCH  50  52
ATOM     51  O   UNL     1     -11.908 -34.215   2.625  0.00  0.00    +0.000 OA
ATOM     52  C   UNL     1     -10.795 -34.057   2.133  0.00  0.00    +0.000 C 
ATOM     53  C   UNL     1      -9.561 -33.986   2.982  0.00  0.00    +0.000 C 
ENDBRANCH  50  52
ENDBRANCH  17  50
BRANCH   7  54
ATOM     54  O   UNL     1      -8.541 -35.444  -3.499  0.00  0.00    +0.000 OA
BRANCH  54  56
ATOM     55  O   UNL     1      -7.845 -37.183  -4.226  0.00  0.00    +0.000 OA
ATOM     56  C   UNL     1      -7.845 -35.999  -4.547  0.00  0.00    +0.000 C 
BRANCH  56  57
ATOM     57  C   UNL     1      -6.908 -34.985  -5.872  0.00  0.00    +0.000 A 
ATOM     58  C   UNL     1      -5.619 -34.326  -5.676  0.00  0.00    +0.000 A 
ATOM     59  C   UNL     1      -7.247 -34.834  -7.251  0.00  0.00    +0.000 A 
ATOM     60  C   UNL     1      -4.837 -33.662  -6.654  0.00  0.00    +0.000 A 
ATOM     61  C   UNL     1      -6.477 -34.170  -8.247  0.00  0.00    +0.000 A 
ATOM     62  C   UNL     1      -5.269 -33.586  -7.952  0.00  0.00    +0.000 A 
ENDBRANCH  56  57
ENDBRANCH  54  56
ENDBRANCH   7  54
BRANCH   4  63
ATOM     63  O   UNL     1     -10.122 -37.402  -5.498  0.00  0.00    +0.000 OA
BRANCH  63  65
ATOM     64  O   UNL     1      -8.903 -38.008  -7.272  0.00  0.00    +0.000 OA
ATOM     65  C   UNL     1      -9.834 -38.255  -6.508  0.00  0.00    +0.000 C 
ATOM     66  C   UNL     1     -10.728 -39.429  -6.754  0.00  0.00    +0.000 C 
ENDBRANCH  63  65
ENDBRANCH   4  63
TORSDOF 17
ENDMDL
MODEL 5
REMARK VINA RESULT:      -5.2      4.125      7.717
REMARK  Name = 
REMARK  23 active torsions:
REMARK  status: ('A' for Active; 'I' for Inactive)
REMARK    1  A    between atoms: O_2  and  C_17
REMARK    2  A    between atoms: O_2  and  C_36
REMARK    3  A    between atoms: O_3  and  C_20
REMARK    4  A    between atoms: O_3  and  C_37
REMARK    5  A    between atoms: O_4  and  C_21
REMARK    6  A    between atoms: O_5  and  C_22
REMARK    7  A    between atoms: O_6  and  C_30
REMARK    8  A    between atoms: O_6  and  C_39
REMARK    9  A    between atoms: O_8  and  C_31
REMARK   10  A    between atoms: O_8  and  C_40
REMARK   11  A    between atoms: O_13  and  C_42
REMARK   12  A    between atoms: N_15  and  C_46
REMARK   13  A    between atoms: C_18  and  C_29
REMARK   14  A    between atoms: C_24  and  C_33
REMARK   15  A    between atoms: C_24  and  C_34
REMARK   16  A    between atoms: C_32  and  C_35
REMARK   17  A    between atoms: C_36  and  C_38
REMARK   18  A    between atoms: C_37  and  C_41
REMARK   19  A    between atoms: C_39  and  C_43
REMARK   20  A    between atoms: C_40  and  C_42
REMARK   21  A    between atoms: C_42  and  C_46
REMARK   22  A    between atoms: C_46  and  C_50
REMARK   23  A    between atoms: C_53  and  C_56
REMARK                            x       y       z     vdW  Elec       q    Type
REMARK                         _______ _______ _______ _____ _____    ______ ____
ROOT
ATOM      1  O   UNL     1      -1.938 -33.485 -10.247  0.00  0.00    +0.000 OA
ATOM      2  O   UNL     1      -6.445 -32.657  -5.404  0.00  0.00    +0.000 OA
ATOM      3  C   UNL     1      -3.114 -34.753  -7.272  0.00  0.00    +0.000 C 
ATOM      4  C   UNL     1      -2.808 -34.799  -8.798  0.00  0.00    +0.000 C 
ATOM      5  C   UNL     1      -4.831 -33.970  -7.075  0.00  0.00    +0.000 C 
ATOM      6  C   UNL     1      -2.688 -33.237  -9.026  0.00  0.00    +0.000 C 
ATOM      7  C   UNL     1      -2.651 -36.345  -6.420  0.00  0.00    +0.000 C 
ATOM      8  C   UNL     1      -2.703 -37.189  -4.725  0.00  0.00    +0.000 C 
ATOM      9  C   UNL     1      -4.675 -32.527  -7.715  0.00  0.00    +0.000 C 
ATOM     10  C   UNL     1      -3.994 -32.481  -9.117  0.00  0.00    +0.000 C 
ATOM     11  C   UNL     1      -3.569 -36.681  -3.262  0.00  0.00    +0.000 C 
ATOM     12  C   UNL     1      -1.432 -34.698  -9.568  0.00  0.00    +0.000 C 
ATOM     13  C   UNL     1      -5.799 -33.724  -5.481  0.00  0.00    +0.000 C 
ATOM     14  C   UNL     1      -3.389 -38.611  -4.967  0.00  0.00    +0.000 C 
ATOM     15  C   UNL     1      -5.132 -36.445  -3.547  0.00  0.00    +0.000 C 
ATOM     16  C   UNL     1      -5.921 -34.651  -8.004  0.00  0.00    +0.000 C 
ATOM     17  C   UNL     1      -5.910 -34.875  -3.946  0.00  0.00    +0.000 C 
ATOM     18  C   UNL     1      -4.953 -38.756  -4.689  0.00  0.00    +0.000 C 
ATOM     19  C   UNL     1      -5.746 -37.596  -3.983  0.00  0.00    +0.000 C 
ATOM     20  C   UNL     1      -3.455 -37.904  -2.221  0.00  0.00    +0.000 C 
ATOM     21  C   UNL     1      -2.911 -35.631  -2.311  0.00  0.00    +0.000 C 
ATOM     22  C   UNL     1      -7.246 -37.729  -4.073  0.00  0.00    +0.000 C 
ENDROOT
BRANCH   9  23
ATOM     23  O   UNL     1      -3.888 -31.715  -6.845  0.00  0.00    +0.000 OA
ATOM     24  H   UNL     1      -4.246 -30.807  -6.917  0.00  0.00    +0.000 HD
ENDBRANCH   9  23
BRANCH   8  25
ATOM     25  O   UNL     1      -1.329 -37.448  -4.379  0.00  0.00    +0.000 OA
ATOM     26  H   UNL     1      -1.030 -38.242  -4.857  0.00  0.00    +0.000 HD
ENDBRANCH   8  25
BRANCH  18  27
ATOM     27  O   UNL     1      -5.616 -38.990  -5.966  0.00  0.00    +0.000 OA
BRANCH  27  29
ATOM     28  O   UNL     1      -6.609 -40.940  -5.387  0.00  0.00    +0.000 OA
ATOM     29  C   UNL     1      -6.022 -40.260  -6.223  0.00  0.00    +0.000 C 
BRANCH  29  30
ATOM     30  C   UNL     1      -5.549 -40.818  -7.569  0.00  0.00    +0.000 C 
BRANCH  30  31
ATOM     31  O   UNL     1      -6.465 -41.704  -8.222  0.00  0.00    +0.000 OA
ATOM     32  H   UNL     1      -6.515 -41.406  -9.149  0.00  0.00    +0.000 HD
ENDBRANCH  30  31
BRANCH  30  33
ATOM     33  C   UNL     1      -4.179 -41.517  -7.346  0.00  0.00    +0.000 C 
BRANCH  33  34
ATOM     34  C   UNL     1      -3.366 -41.527  -8.633  0.00  0.00    +0.000 A 
ATOM     35  C   UNL     1      -2.283 -42.415  -8.759  0.00  0.00    +0.000 A 
ATOM     36  C   UNL     1      -3.641 -40.651  -9.695  0.00  0.00    +0.000 A 
ATOM     37  C   UNL     1      -1.511 -42.439  -9.921  0.00  0.00    +0.000 A 
ATOM     38  C   UNL     1      -2.869 -40.677 -10.856  0.00  0.00    +0.000 A 
ATOM     39  C   UNL     1      -1.806 -41.572 -10.971  0.00  0.00    +0.000 A 
ENDBRANCH  33  34
BRANCH  33  41
ATOM     40  O   UNL     1      -4.611 -44.384  -5.184  0.00  0.00    +0.000 OA
ATOM     41  N   UNL     1      -4.377 -42.881  -6.838  0.00  0.00    +0.000 N 
ATOM     42  C   UNL     1      -4.010 -43.412  -5.632  0.00  0.00    +0.000 C 
ATOM     43  H   UNL     1      -5.103 -43.409  -7.312  0.00  0.00    +0.000 HD
BRANCH  42  44
ATOM     44  C   UNL     1      -2.922 -42.796  -4.840  0.00  0.00    +0.000 A 
ATOM     45  C   UNL     1      -3.194 -41.957  -3.755  0.00  0.00    +0.000 A 
ATOM     46  C   UNL     1      -1.598 -43.010  -5.242  0.00  0.00    +0.000 A 
ATOM     47  C   UNL     1      -2.143 -41.385  -3.037  0.00  0.00    +0.000 A 
ATOM     48  C   UNL     1      -0.549 -42.435  -4.525  0.00  0.00    +0.000 A 
ATOM     49  C   UNL     1      -0.823 -41.630  -3.418  0.00  0.00    +0.000 A 
ENDBRANCH  42  44
ENDBRANCH  33  41
ENDBRANCH  30  33
ENDBRANCH  29  30
ENDBRANCH  27  29
ENDBRANCH  18  27
BRANCH  17  50
ATOM     50  O   UNL     1      -5.854 -34.144  -2.702  0.00  0.00    +0.000 OA
BRANCH  50  52
ATOM     51  O   UNL     1      -6.849 -32.953  -1.089  0.00  0.00    +0.000 OA
ATOM     52  C   UNL     1      -6.956 -33.704  -2.054  0.00  0.00    +0.000 C 
ATOM     53  C   UNL     1      -8.288 -34.233  -2.497  0.00  0.00    +0.000 C 
ENDBRANCH  50  52
ENDBRANCH  17  50
BRANCH   7  54
ATOM     54  O   UNL     1      -3.906 -36.698  -6.598  0.00  0.00    +0.000 OA
BRANCH  54  56
ATOM     55  O   UNL     1      -4.647 -37.725  -8.158  0.00  0.00    +0.000 OA
ATOM     56  C   UNL     1      -3.551 -37.506  -7.652  0.00  0.00    +0.000 C 
BRANCH  56  57
ATOM     57  C   UNL     1      -1.808 -38.258  -7.891  0.00  0.00    +0.000 A 
ATOM     58  C   UNL     1      -1.223 -39.313  -7.066  0.00  0.00    +0.000 A 
ATOM     59  C   UNL     1      -0.893 -38.009  -8.959  0.00  0.00    +0.000 A 
ATOM     60  C   UNL     1       0.012 -39.977  -7.271  0.00  0.00    +0.000 A 
ATOM     61  C   UNL     1       0.352 -38.663  -9.181  0.00  0.00    +0.000 A 
ATOM     62  C   UNL     1       0.806 -39.651  -8.340  0.00  0.00    +0.000 A 
ENDBRANCH  56  57
ENDBRANCH  54  56
ENDBRANCH   7  54
BRANCH   4  63
ATOM     63  O   UNL     1      -3.867 -35.433  -9.552  0.00  0.00    +0.000 OA
BRANCH  63  65
ATOM     64  O   UNL     1      -4.296 -34.896 -11.680  0.00  0.00    +0.000 OA
ATOM     65  C   UNL     1      -3.814 -35.694 -10.878  0.00  0.00    +0.000 C 
ATOM     66  C   UNL     1      -3.276 -37.009 -11.346  0.00  0.00    +0.000 C 
ENDBRANCH  63  65
ENDBRANCH   4  63
TORSDOF 17
ENDMDL
MODEL 6
REMARK VINA RESULT:      -5.2      3.992      7.836
REMARK  Name = 
REMARK  23 active torsions:
REMARK  status: ('A' for Active; 'I' for Inactive)
REMARK    1  A    between atoms: O_2  and  C_17
REMARK    2  A    between atoms: O_2  and  C_36
REMARK    3  A    between atoms: O_3  and  C_20
REMARK    4  A    between atoms: O_3  and  C_37
REMARK    5  A    between atoms: O_4  and  C_21
REMARK    6  A    between atoms: O_5  and  C_22
REMARK    7  A    between atoms: O_6  and  C_30
REMARK    8  A    between atoms: O_6  and  C_39
REMARK    9  A    between atoms: O_8  and  C_31
REMARK   10  A    between atoms: O_8  and  C_40
REMARK   11  A    between atoms: O_13  and  C_42
REMARK   12  A    between atoms: N_15  and  C_46
REMARK   13  A    between atoms: C_18  and  C_29
REMARK   14  A    between atoms: C_24  and  C_33
REMARK   15  A    between atoms: C_24  and  C_34
REMARK   16  A    between atoms: C_32  and  C_35
REMARK   17  A    between atoms: C_36  and  C_38
REMARK   18  A    between atoms: C_37  and  C_41
REMARK   19  A    between atoms: C_39  and  C_43
REMARK   20  A    between atoms: C_40  and  C_42
REMARK   21  A    between atoms: C_42  and  C_46
REMARK   22  A    between atoms: C_46  and  C_50
REMARK   23  A    between atoms: C_53  and  C_56
REMARK                            x       y       z     vdW  Elec       q    Type
REMARK                         _______ _______ _______ _____ _____    ______ ____
ROOT
ATOM      1  O   UNL     1      -5.169 -32.406  -6.362  0.00  0.00    +0.000 OA
ATOM      2  O   UNL     1      -5.781 -37.534 -10.578  0.00  0.00    +0.000 OA
ATOM      3  C   UNL     1      -6.502 -35.552  -6.767  0.00  0.00    +0.000 C 
ATOM      4  C   UNL     1      -5.576 -34.491  -6.103  0.00  0.00    +0.000 C 
ATOM      5  C   UNL     1      -5.545 -36.281  -8.234  0.00  0.00    +0.000 C 
ATOM      6  C   UNL     1      -5.585 -33.445  -7.291  0.00  0.00    +0.000 C 
ATOM      7  C   UNL     1      -7.344 -36.633  -5.501  0.00  0.00    +0.000 C 
ATOM      8  C   UNL     1      -8.510 -38.119  -5.362  0.00  0.00    +0.000 C 
ATOM      9  C   UNL     1      -5.267 -35.033  -9.173  0.00  0.00    +0.000 C 
ATOM     10  C   UNL     1      -4.690 -33.771  -8.464  0.00  0.00    +0.000 C 
ATOM     11  C   UNL     1      -9.042 -39.231  -6.637  0.00  0.00    +0.000 C 
ATOM     12  C   UNL     1      -5.936 -33.154  -5.342  0.00  0.00    +0.000 C 
ATOM     13  C   UNL     1      -6.091 -37.673  -9.376  0.00  0.00    +0.000 C 
ATOM     14  C   UNL     1      -7.783 -39.153  -4.385  0.00  0.00    +0.000 C 
ATOM     15  C   UNL     1      -7.799 -39.877  -7.422  0.00  0.00    +0.000 C 
ATOM     16  C   UNL     1      -4.086 -36.754  -7.835  0.00  0.00    +0.000 C 
ATOM     17  C   UNL     1      -7.080 -39.265  -8.952  0.00  0.00    +0.000 C 
ATOM     18  C   UNL     1      -6.930 -40.336  -5.032  0.00  0.00    +0.000 C 
ATOM     19  C   UNL     1      -6.993 -40.607  -6.580  0.00  0.00    +0.000 C 
ATOM     20  C   UNL     1      -9.812 -40.435  -5.895  0.00  0.00    +0.000 C 
ATOM     21  C   UNL     1     -10.252 -38.832  -7.541  0.00  0.00    +0.000 C 
ATOM     22  C   UNL     1      -5.913 -41.528  -7.091  0.00  0.00    +0.000 C 
ENDROOT
BRANCH   9  23
ATOM     23  O   UNL     1      -6.489 -34.638  -9.795  0.00  0.00    +0.000 OA
ATOM     24  H   UNL     1      -6.335 -34.685 -10.760  0.00  0.00    +0.000 HD
ENDBRANCH   9  23
BRANCH   8  25
ATOM     25  O   UNL     1      -9.670 -37.635  -4.658  0.00  0.00    +0.000 OA
ATOM     26  H   UNL     1     -10.286 -37.243  -5.302  0.00  0.00    +0.000 HD
ENDBRANCH   8  25
BRANCH  18  27
ATOM     27  O   UNL     1      -5.527 -40.107  -4.711  0.00  0.00    +0.000 OA
BRANCH  27  29
ATOM     28  O   UNL     1      -5.410 -40.619  -2.510  0.00  0.00    +0.000 OA
ATOM     29  C   UNL     1      -5.017 -40.796  -3.658  0.00  0.00    +0.000 C 
BRANCH  29  30
ATOM     30  C   UNL     1      -3.815 -41.681  -4.002  0.00  0.00    +0.000 C 
BRANCH  30  31
ATOM     31  O   UNL     1      -4.101 -43.078  -4.135  0.00  0.00    +0.000 OA
ATOM     32  H   UNL     1      -5.066 -43.146  -4.261  0.00  0.00    +0.000 HD
ENDBRANCH  30  31
BRANCH  30  33
ATOM     33  C   UNL     1      -2.721 -41.450  -2.922  0.00  0.00    +0.000 C 
BRANCH  33  34
ATOM     34  C   UNL     1      -1.336 -41.448  -3.554  0.00  0.00    +0.000 A 
ATOM     35  C   UNL     1      -0.200 -41.408  -2.726  0.00  0.00    +0.000 A 
ATOM     36  C   UNL     1      -1.152 -41.454  -4.945  0.00  0.00    +0.000 A 
ATOM     37  C   UNL     1       1.083 -41.393  -3.276  0.00  0.00    +0.000 A 
ATOM     38  C   UNL     1       0.132 -41.441  -5.493  0.00  0.00    +0.000 A 
ATOM     39  C   UNL     1       1.248 -41.412  -4.659  0.00  0.00    +0.000 A 
ENDBRANCH  33  34
BRANCH  33  41
ATOM     40  O   UNL     1      -3.545 -43.224   0.120  0.00  0.00    +0.000 OA
ATOM     41  N   UNL     1      -2.818 -42.467  -1.868  0.00  0.00    +0.000 N 
ATOM     42  C   UNL     1      -3.062 -42.302  -0.532  0.00  0.00    +0.000 C 
ATOM     43  H   UNL     1      -2.999 -43.409  -2.202  0.00  0.00    +0.000 HD
BRANCH  42  44
ATOM     44  C   UNL     1      -2.793 -41.004   0.126  0.00  0.00    +0.000 A 
ATOM     45  C   UNL     1      -3.818 -40.088   0.382  0.00  0.00    +0.000 A 
ATOM     46  C   UNL     1      -1.467 -40.670   0.428  0.00  0.00    +0.000 A 
ATOM     47  C   UNL     1      -3.525 -38.869   0.994  0.00  0.00    +0.000 A 
ATOM     48  C   UNL     1      -1.176 -39.450   1.038  0.00  0.00    +0.000 A 
ATOM     49  C   UNL     1      -2.207 -38.555   1.328  0.00  0.00    +0.000 A 
ENDBRANCH  42  44
ENDBRANCH  33  41
ENDBRANCH  30  33
ENDBRANCH  29  30
ENDBRANCH  27  29
ENDBRANCH  18  27
BRANCH  17  50
ATOM     50  O   UNL     1      -8.083 -39.574  -9.944  0.00  0.00    +0.000 OA
BRANCH  50  52
ATOM     51  O   UNL     1      -7.500 -40.066 -12.048  0.00  0.00    +0.000 OA
ATOM     52  C   UNL     1      -7.881 -40.456 -10.948  0.00  0.00    +0.000 C 
ATOM     53  C   UNL     1      -8.221 -41.894 -10.697  0.00  0.00    +0.000 C 
ENDBRANCH  50  52
ENDBRANCH  17  50
BRANCH   7  54
ATOM     54  O   UNL     1      -6.349 -37.473  -5.692  0.00  0.00    +0.000 OA
BRANCH  54  56
ATOM     55  O   UNL     1      -6.714 -36.455  -3.999  0.00  0.00    +0.000 OA
ATOM     56  C   UNL     1      -5.828 -37.169  -4.456  0.00  0.00    +0.000 C 
BRANCH  56  57
ATOM     57  C   UNL     1      -4.035 -37.565  -3.918  0.00  0.00    +0.000 A 
ATOM     58  C   UNL     1      -2.906 -37.768  -4.824  0.00  0.00    +0.000 A 
ATOM     59  C   UNL     1      -3.512 -37.590  -2.589  0.00  0.00    +0.000 A 
ATOM     60  C   UNL     1      -1.546 -37.952  -4.472  0.00  0.00    +0.000 A 
ATOM     61  C   UNL     1      -2.150 -37.774  -2.216  0.00  0.00    +0.000 A 
ATOM     62  C   UNL     1      -1.164 -37.952  -3.156  0.00  0.00    +0.000 A 
ENDBRANCH  56  57
ENDBRANCH  54  56
ENDBRANCH   7  54
BRANCH   4  63
ATOM     63  O   UNL     1      -4.269 -35.024  -5.786  0.00  0.00    +0.000 OA
BRANCH  63  65
ATOM     64  O   UNL     1      -2.308 -33.951  -5.847  0.00  0.00    +0.000 OA
ATOM     65  C   UNL     1      -3.279 -34.322  -5.189  0.00  0.00    +0.000 C 
ATOM     66  C   UNL     1      -3.319 -34.108  -3.710  0.00  0.00    +0.000 C 
ENDBRANCH  63  65
ENDBRANCH   4  63
TORSDOF 17
ENDMDL
MODEL 7
REMARK VINA RESULT:      -5.2     14.993     20.100
REMARK  Name = 
REMARK  23 active torsions:
REMARK  status: ('A' for Active; 'I' for Inactive)
REMARK    1  A    between atoms: O_2  and  C_17
REMARK    2  A    between atoms: O_2  and  C_36
REMARK    3  A    between atoms: O_3  and  C_20
REMARK    4  A    between atoms: O_3  and  C_37
REMARK    5  A    between atoms: O_4  and  C_21
REMARK    6  A    between atoms: O_5  and  C_22
REMARK    7  A    between atoms: O_6  and  C_30
REMARK    8  A    between atoms: O_6  and  C_39
REMARK    9  A    between atoms: O_8  and  C_31
REMARK   10  A    between atoms: O_8  and  C_40
REMARK   11  A    between atoms: O_13  and  C_42
REMARK   12  A    between atoms: N_15  and  C_46
REMARK   13  A    between atoms: C_18  and  C_29
REMARK   14  A    between atoms: C_24  and  C_33
REMARK   15  A    between atoms: C_24  and  C_34
REMARK   16  A    between atoms: C_32  and  C_35
REMARK   17  A    between atoms: C_36  and  C_38
REMARK   18  A    between atoms: C_37  and  C_41
REMARK   19  A    between atoms: C_39  and  C_43
REMARK   20  A    between atoms: C_40  and  C_42
REMARK   21  A    between atoms: C_42  and  C_46
REMARK   22  A    between atoms: C_46  and  C_50
REMARK   23  A    between atoms: C_53  and  C_56
REMARK                            x       y       z     vdW  Elec       q    Type
REMARK                         _______ _______ _______ _____ _____    ______ ____
ROOT
ATOM      1  O   UNL     1     -18.852 -16.853  -5.296  0.00  0.00    +0.000 OA
ATOM      2  O   UNL     1     -17.975 -14.152   0.736  0.00  0.00    +0.000 OA
ATOM      3  C   UNL     1     -16.819 -16.804  -2.520  0.00  0.00    +0.000 C 
ATOM      4  C   UNL     1     -17.788 -17.467  -3.543  0.00  0.00    +0.000 C 
ATOM      5  C   UNL     1     -17.893 -16.021  -1.167  0.00  0.00    +0.000 C 
ATOM      6  C   UNL     1     -18.430 -16.133  -4.105  0.00  0.00    +0.000 C 
ATOM      7  C   UNL     1     -15.370 -17.907  -2.118  0.00  0.00    +0.000 C 
ATOM      8  C   UNL     1     -13.827 -17.985  -1.023  0.00  0.00    +0.000 C 
ATOM      9  C   UNL     1     -18.785 -14.964  -1.943  0.00  0.00    +0.000 C 
ATOM     10  C   UNL     1     -19.484 -15.489  -3.234  0.00  0.00    +0.000 C 
ATOM     11  C   UNL     1     -13.375 -16.931   0.331  0.00  0.00    +0.000 C 
ATOM     12  C   UNL     1     -17.640 -17.680  -5.101  0.00  0.00    +0.000 C 
ATOM     13  C   UNL     1     -17.308 -15.152   0.396  0.00  0.00    +0.000 C 
ATOM     14  C   UNL     1     -13.904 -19.387  -0.261  0.00  0.00    +0.000 C 
ATOM     15  C   UNL     1     -14.540 -16.842   1.432  0.00  0.00    +0.000 C 
ATOM     16  C   UNL     1     -18.969 -17.029  -0.584  0.00  0.00    +0.000 C 
ATOM     17  C   UNL     1     -15.813 -15.577   1.526  0.00  0.00    +0.000 C 
ATOM     18  C   UNL     1     -14.514 -19.417   1.213  0.00  0.00    +0.000 C 
ATOM     19  C   UNL     1     -14.818 -18.075   1.975  0.00  0.00    +0.000 C 
ATOM     20  C   UNL     1     -12.104 -17.622   1.038  0.00  0.00    +0.000 C 
ATOM     21  C   UNL     1     -12.648 -15.580   0.035  0.00  0.00    +0.000 C 
ATOM     22  C   UNL     1     -15.675 -18.243   3.205  0.00  0.00    +0.000 C 
ENDROOT
BRANCH   9  23
ATOM     23  O   UNL     1     -17.966 -13.862  -2.333  0.00  0.00    +0.000 OA
ATOM     24  H   UNL     1     -17.730 -13.389  -1.510  0.00  0.00    +0.000 HD
ENDBRANCH   9  23
BRANCH   8  25
ATOM     25  O   UNL     1     -12.712 -18.072  -1.931  0.00  0.00    +0.000 OA
ATOM     26  H   UNL     1     -11.909 -18.279  -1.422  0.00  0.00    +0.000 HD
ENDBRANCH   8  25
BRANCH  18  27
ATOM     27  O   UNL     1     -15.770 -20.156   1.165  0.00  0.00    +0.000 OA
BRANCH  27  29
ATOM     28  O   UNL     1     -16.696 -21.708   2.527  0.00  0.00    +0.000 OA
ATOM     29  C   UNL     1     -15.791 -21.371   1.772  0.00  0.00    +0.000 C 
BRANCH  29  30
ATOM     30  C   UNL     1     -14.524 -22.207   1.562  0.00  0.00    +0.000 C 
BRANCH  30  31
ATOM     31  O   UNL     1     -14.650 -23.286   0.629  0.00  0.00    +0.000 OA
ATOM     32  H   UNL     1     -14.512 -22.897  -0.255  0.00  0.00    +0.000 HD
ENDBRANCH  30  31
BRANCH  30  33
ATOM     33  C   UNL     1     -14.061 -22.736   2.948  0.00  0.00    +0.000 C 
BRANCH  33  34
ATOM     34  C   UNL     1     -13.452 -21.613   3.775  0.00  0.00    +0.000 A 
ATOM     35  C   UNL     1     -12.272 -20.990   3.333  0.00  0.00    +0.000 A 
ATOM     36  C   UNL     1     -14.016 -21.194   4.991  0.00  0.00    +0.000 A 
ATOM     37  C   UNL     1     -11.683 -19.967   4.077  0.00  0.00    +0.000 A 
ATOM     38  C   UNL     1     -13.427 -20.169   5.732  0.00  0.00    +0.000 A 
ATOM     39  C   UNL     1     -12.263 -19.554   5.275  0.00  0.00    +0.000 A 
ENDBRANCH  33  34
BRANCH  33  41
ATOM     40  O   UNL     1     -12.375 -25.926   3.192  0.00  0.00    +0.000 OA
ATOM     41  N   UNL     1     -13.109 -23.842   2.782  0.00  0.00    +0.000 N 
ATOM     42  C   UNL     1     -12.835 -24.878   3.633  0.00  0.00    +0.000 C 
ATOM     43  H   UNL     1     -12.824 -24.017   1.823  0.00  0.00    +0.000 HD
BRANCH  42  44
ATOM     44  C   UNL     1     -13.133 -24.760   5.079  0.00  0.00    +0.000 A 
ATOM     45  C   UNL     1     -14.390 -25.092   5.593  0.00  0.00    +0.000 A 
ATOM     46  C   UNL     1     -12.148 -24.237   5.924  0.00  0.00    +0.000 A 
ATOM     47  C   UNL     1     -14.639 -24.958   6.960  0.00  0.00    +0.000 A 
ATOM     48  C   UNL     1     -12.399 -24.102   7.289  0.00  0.00    +0.000 A 
ATOM     49  C   UNL     1     -13.641 -24.472   7.807  0.00  0.00    +0.000 A 
ENDBRANCH  42  44
ENDBRANCH  33  41
ENDBRANCH  30  33
ENDBRANCH  29  30
ENDBRANCH  27  29
ENDBRANCH  18  27
BRANCH  17  50
ATOM     50  O   UNL     1     -15.091 -14.402   1.952  0.00  0.00    +0.000 OA
BRANCH  50  52
ATOM     51  O   UNL     1     -15.994 -12.802   3.230  0.00  0.00    +0.000 OA
ATOM     52  C   UNL     1     -15.292 -13.805   3.149  0.00  0.00    +0.000 C 
ATOM     53  C   UNL     1     -14.562 -14.355   4.338  0.00  0.00    +0.000 C 
ENDBRANCH  50  52
ENDBRANCH  17  50
BRANCH   7  54
ATOM     54  O   UNL     1     -16.083 -18.310  -1.087  0.00  0.00    +0.000 OA
BRANCH  54  56
ATOM     55  O   UNL     1     -15.589 -19.424  -2.684  0.00  0.00    +0.000 OA
ATOM     56  C   UNL     1     -16.271 -19.540  -1.672  0.00  0.00    +0.000 C 
BRANCH  56  57
ATOM     57  C   UNL     1     -17.565 -20.823  -1.085  0.00  0.00    +0.000 A 
ATOM     58  C   UNL     1     -17.453 -22.271  -1.249  0.00  0.00    +0.000 A 
ATOM     59  C   UNL     1     -18.735 -20.581  -0.304  0.00  0.00    +0.000 A 
ATOM     60  C   UNL     1     -18.325 -23.262  -0.735  0.00  0.00    +0.000 A 
ATOM     61  C   UNL     1     -19.624 -21.562   0.220  0.00  0.00    +0.000 A 
ATOM     62  C   UNL     1     -19.420 -22.905   0.008  0.00  0.00    +0.000 A 
ENDBRANCH  56  57
ENDBRANCH  54  56
ENDBRANCH   7  54
BRANCH   4  63
ATOM     63  O   UNL     1     -18.731 -18.361  -2.906  0.00  0.00    +0.000 OA
BRANCH  63  65
ATOM     64  O   UNL     1     -20.785 -18.854  -3.638  0.00  0.00    +0.000 OA
ATOM     65  C   UNL     1     -19.597 -19.161  -3.569  0.00  0.00    +0.000 C 
ATOM     66  C   UNL     1     -19.119 -20.471  -4.109  0.00  0.00    +0.000 C 
ENDBRANCH  63  65
ENDBRANCH   4  63
TORSDOF 17
ENDMDL
MODEL 8
REMARK VINA RESULT:      -5.2     18.207     23.359
REMARK  Name = 
REMARK  23 active torsions:
REMARK  status: ('A' for Active; 'I' for Inactive)
REMARK    1  A    between atoms: O_2  and  C_17
REMARK    2  A    between atoms: O_2  and  C_36
REMARK    3  A    between atoms: O_3  and  C_20
REMARK    4  A    between atoms: O_3  and  C_37
REMARK    5  A    between atoms: O_4  and  C_21
REMARK    6  A    between atoms: O_5  and  C_22
REMARK    7  A    between atoms: O_6  and  C_30
REMARK    8  A    between atoms: O_6  and  C_39
REMARK    9  A    between atoms: O_8  and  C_31
REMARK   10  A    between atoms: O_8  and  C_40
REMARK   11  A    between atoms: O_13  and  C_42
REMARK   12  A    between atoms: N_15  and  C_46
REMARK   13  A    between atoms: C_18  and  C_29
REMARK   14  A    between atoms: C_24  and  C_33
REMARK   15  A    between atoms: C_24  and  C_34
REMARK   16  A    between atoms: C_32  and  C_35
REMARK   17  A    between atoms: C_36  and  C_38
REMARK   18  A    between atoms: C_37  and  C_41
REMARK   19  A    between atoms: C_39  and  C_43
REMARK   20  A    between atoms: C_40  and  C_42
REMARK   21  A    between atoms: C_42  and  C_46
REMARK   22  A    between atoms: C_46  and  C_50
REMARK   23  A    between atoms: C_53  and  C_56
REMARK                            x       y       z     vdW  Elec       q    Type
REMARK                         _______ _______ _______ _____ _____    ______ ____
ROOT
ATOM      1  O   UNL     1     -22.842 -13.790   0.577  0.00  0.00    +0.000 OA
ATOM      2  O   UNL     1     -18.571 -12.388  -4.347  0.00  0.00    +0.000 OA
ATOM      3  C   UNL     1     -20.728 -15.158  -1.768  0.00  0.00    +0.000 C 
ATOM      4  C   UNL     1     -21.221 -14.860  -0.321  0.00  0.00    +0.000 C 
ATOM      5  C   UNL     1     -19.598 -13.720  -2.276  0.00  0.00    +0.000 C 
ATOM      6  C   UNL     1     -22.117 -13.602  -0.670  0.00  0.00    +0.000 C 
ATOM      7  C   UNL     1     -20.215 -16.939  -1.976  0.00  0.00    +0.000 C 
ATOM      8  C   UNL     1     -19.482 -18.130  -3.253  0.00  0.00    +0.000 C 
ATOM      9  C   UNL     1     -20.537 -12.444  -2.197  0.00  0.00    +0.000 C 
ATOM     10  C   UNL     1     -21.375 -12.303  -0.890  0.00  0.00    +0.000 C 
ATOM     11  C   UNL     1     -18.742 -17.754  -4.821  0.00  0.00    +0.000 C 
ATOM     12  C   UNL     1     -22.579 -15.234   0.393  0.00  0.00    +0.000 C 
ATOM     13  C   UNL     1     -18.623 -13.544  -3.875  0.00  0.00    +0.000 C 
ATOM     14  C   UNL     1     -18.245 -18.836  -2.531  0.00  0.00    +0.000 C 
ATOM     15  C   UNL     1     -17.561 -16.677  -4.679  0.00  0.00    +0.000 C 
ATOM     16  C   UNL     1     -18.486 -13.408  -1.191  0.00  0.00    +0.000 C 
ATOM     17  C   UNL     1     -17.718 -14.899  -4.893  0.00  0.00    +0.000 C 
ATOM     18  C   UNL     1     -16.784 -18.242  -2.775  0.00  0.00    +0.000 C 
ATOM     19  C   UNL     1     -16.548 -17.140  -3.872  0.00  0.00    +0.000 C 
ATOM     20  C   UNL     1     -18.076 -19.123  -5.347  0.00  0.00    +0.000 C 
ATOM     21  C   UNL     1     -19.660 -17.560  -6.071  0.00  0.00    +0.000 C 
ATOM     22  C   UNL     1     -15.209 -16.451  -3.777  0.00  0.00    +0.000 C 
ENDROOT
BRANCH   9  23
ATOM     23  O   UNL     1     -21.463 -12.479  -3.282  0.00  0.00    +0.000 OA
ATOM     24  H   UNL     1     -22.312 -12.146  -2.930  0.00  0.00    +0.000 HD
ENDBRANCH   9  23
BRANCH   8  25
ATOM     25  O   UNL     1     -20.481 -19.150  -3.448  0.00  0.00    +0.000 OA
ATOM     26  H   UNL     1     -20.497 -19.396  -4.390  0.00  0.00    +0.000 HD
ENDBRANCH   8  25
BRANCH  18  27
ATOM     27  O   UNL     1     -16.312 -17.679  -1.517  0.00  0.00    +0.000 OA
BRANCH  27  29
ATOM     28  O   UNL     1     -15.818 -19.315  -0.034  0.00  0.00    +0.000 OA
ATOM     29  C   UNL     1     -15.441 -18.431  -0.796  0.00  0.00    +0.000 C 
BRANCH  29  30
ATOM     30  C   UNL     1     -13.981 -17.978  -0.891  0.00  0.00    +0.000 C 
BRANCH  30  31
ATOM     31  O   UNL     1     -13.184 -18.679  -1.853  0.00  0.00    +0.000 OA
ATOM     32  H   UNL     1     -13.807 -19.031  -2.515  0.00  0.00    +0.000 HD
ENDBRANCH  30  31
BRANCH  30  33
ATOM     33  C   UNL     1     -13.348 -18.088   0.524  0.00  0.00    +0.000 C 
BRANCH  33  34
ATOM     34  C   UNL     1     -12.355 -16.958   0.757  0.00  0.00    +0.000 A 
ATOM     35  C   UNL     1     -12.691 -15.651   0.364  0.00  0.00    +0.000 A 
ATOM     36  C   UNL     1     -11.092 -17.182   1.326  0.00  0.00    +0.000 A 
ATOM     37  C   UNL     1     -11.797 -14.596   0.552  0.00  0.00    +0.000 A 
ATOM     38  C   UNL     1     -10.199 -16.127   1.515  0.00  0.00    +0.000 A 
ATOM     39  C   UNL     1     -10.552 -14.834   1.131  0.00  0.00    +0.000 A 
ENDBRANCH  33  34
BRANCH  33  41
ATOM     40  O   UNL     1     -12.679 -21.533   1.396  0.00  0.00    +0.000 OA
ATOM     41  N   UNL     1     -12.706 -19.397   0.699  0.00  0.00    +0.000 N 
ATOM     42  C   UNL     1     -12.959 -20.362   1.635  0.00  0.00    +0.000 C 
ATOM     43  H   UNL     1     -12.217 -19.743  -0.121  0.00  0.00    +0.000 HD
BRANCH  42  44
ATOM     44  C   UNL     1     -13.613 -20.013   2.916  0.00  0.00    +0.000 A 
ATOM     45  C   UNL     1     -13.024 -19.118   3.815  0.00  0.00    +0.000 A 
ATOM     46  C   UNL     1     -14.811 -20.654   3.252  0.00  0.00    +0.000 A 
ATOM     47  C   UNL     1     -13.665 -18.819   5.019  0.00  0.00    +0.000 A 
ATOM     48  C   UNL     1     -15.448 -20.356   4.457  0.00  0.00    +0.000 A 
ATOM     49  C   UNL     1     -14.878 -19.432   5.334  0.00  0.00    +0.000 A 
ENDBRANCH  42  44
ENDBRANCH  33  41
ENDBRANCH  30  33
ENDBRANCH  29  30
ENDBRANCH  27  29
ENDBRANCH  18  27
BRANCH  17  50
ATOM     50  O   UNL     1     -17.914 -14.746  -6.315  0.00  0.00    +0.000 OA
BRANCH  50  52
ATOM     51  O   UNL     1     -17.138 -14.284  -8.363  0.00  0.00    +0.000 OA
ATOM     52  C   UNL     1     -16.946 -14.306  -7.151  0.00  0.00    +0.000 C 
ATOM     53  C   UNL     1     -15.621 -13.937  -6.556  0.00  0.00    +0.000 C 
ENDBRANCH  50  52
ENDBRANCH  17  50
BRANCH   7  54
ATOM     54  O   UNL     1     -18.994 -16.521  -1.713  0.00  0.00    +0.000 OA
BRANCH  54  56
ATOM     55  O   UNL     1     -20.105 -17.711  -0.535  0.00  0.00    +0.000 OA
ATOM     56  C   UNL     1     -19.039 -17.108  -0.471  0.00  0.00    +0.000 C 
BRANCH  56  57
ATOM     57  C   UNL     1     -17.836 -16.692   0.959  0.00  0.00    +0.000 A 
ATOM     58  C   UNL     1     -17.678 -17.474   2.183  0.00  0.00    +0.000 A 
ATOM     59  C   UNL     1     -16.846 -15.664   0.989  0.00  0.00    +0.000 A 
ATOM     60  C   UNL     1     -16.726 -17.270   3.214  0.00  0.00    +0.000 A 
ATOM     61  C   UNL     1     -15.884 -15.441   2.015  0.00  0.00    +0.000 A 
ATOM     62  C   UNL     1     -15.820 -16.246   3.128  0.00  0.00    +0.000 A 
ENDBRANCH  56  57
ENDBRANCH  54  56
ENDBRANCH   7  54
BRANCH   4  63
ATOM     63  O   UNL     1     -20.127 -14.581   0.585  0.00  0.00    +0.000 OA
BRANCH  63  65
ATOM     64  O   UNL     1     -20.573 -15.476   2.585  0.00  0.00    +0.000 OA
ATOM     65  C   UNL     1     -20.250 -14.488   1.928  0.00  0.00    +0.000 C 
ATOM     66  C   UNL     1     -20.105 -13.154   2.588  0.00  0.00    +0.000 C 
ENDBRANCH  63  65
ENDBRANCH   4  63
TORSDOF 17
ENDMDL
MODEL 9
REMARK VINA RESULT:      -5.0     15.147     20.476
REMARK  Name = 
REMARK  23 active torsions:
REMARK  status: ('A' for Active; 'I' for Inactive)
REMARK    1  A    between atoms: O_2  and  C_17
REMARK    2  A    between atoms: O_2  and  C_36
REMARK    3  A    between atoms: O_3  and  C_20
REMARK    4  A    between atoms: O_3  and  C_37
REMARK    5  A    between atoms: O_4  and  C_21
REMARK    6  A    between atoms: O_5  and  C_22
REMARK    7  A    between atoms: O_6  and  C_30
REMARK    8  A    between atoms: O_6  and  C_39
REMARK    9  A    between atoms: O_8  and  C_31
REMARK   10  A    between atoms: O_8  and  C_40
REMARK   11  A    between atoms: O_13  and  C_42
REMARK   12  A    between atoms: N_15  and  C_46
REMARK   13  A    between atoms: C_18  and  C_29
REMARK   14  A    between atoms: C_24  and  C_33
REMARK   15  A    between atoms: C_24  and  C_34
REMARK   16  A    between atoms: C_32  and  C_35
REMARK   17  A    between atoms: C_36  and  C_38
REMARK   18  A    between atoms: C_37  and  C_41
REMARK   19  A    between atoms: C_39  and  C_43
REMARK   20  A    between atoms: C_40  and  C_42
REMARK   21  A    between atoms: C_42  and  C_46
REMARK   22  A    between atoms: C_46  and  C_50
REMARK   23  A    between atoms: C_53  and  C_56
REMARK                            x       y       z     vdW  Elec       q    Type
REMARK                         _______ _______ _______ _____ _____    ______ ____
ROOT
ATOM      1  O   UNL     1     -17.353 -19.245   0.237  0.00  0.00    +0.000 OA
ATOM      2  O   UNL     1     -13.118 -23.765   2.706  0.00  0.00    +0.000 OA
ATOM      3  C   UNL     1     -15.433 -20.084   2.967  0.00  0.00    +0.000 C 
ATOM      4  C   UNL     1     -15.856 -19.188   1.767  0.00  0.00    +0.000 C 
ATOM      5  C   UNL     1     -14.198 -21.359   2.297  0.00  0.00    +0.000 C 
ATOM      6  C   UNL     1     -16.649 -20.294   0.959  0.00  0.00    +0.000 C 
ATOM      7  C   UNL     1     -15.083 -19.079   4.499  0.00  0.00    +0.000 C 
ATOM      8  C   UNL     1     -14.494 -19.264   6.289  0.00  0.00    +0.000 C 
ATOM      9  C   UNL     1     -15.019 -22.153   1.196  0.00  0.00    +0.000 C 
ATOM     10  C   UNL     1     -15.804 -21.273   0.176  0.00  0.00    +0.000 C 
ATOM     11  C   UNL     1     -13.768 -20.678   7.076  0.00  0.00    +0.000 C 
ATOM     12  C   UNL     1     -17.221 -18.447   1.476  0.00  0.00    +0.000 C 
ATOM     13  C   UNL     1     -13.257 -22.662   3.276  0.00  0.00    +0.000 C 
ATOM     14  C   UNL     1     -13.302 -18.215   6.465  0.00  0.00    +0.000 C 
ATOM     15  C   UNL     1     -12.494 -21.224   6.265  0.00  0.00    +0.000 C 
ATOM     16  C   UNL     1     -13.032 -20.693   1.455  0.00  0.00    +0.000 C 
ATOM     17  C   UNL     1     -12.502 -22.537   5.038  0.00  0.00    +0.000 C 
ATOM     18  C   UNL     1     -11.803 -18.734   6.295  0.00  0.00    +0.000 C 
ATOM     19  C   UNL     1     -11.503 -20.274   6.184  0.00  0.00    +0.000 C 
ATOM     20  C   UNL     1     -13.240 -20.177   8.512  0.00  0.00    +0.000 C 
ATOM     21  C   UNL     1     -14.701 -21.791   7.655  0.00  0.00    +0.000 C 
ATOM     22  C   UNL     1     -10.107 -20.599   5.712  0.00  0.00    +0.000 C 
ENDROOT
BRANCH   9  23
ATOM     23  O   UNL     1     -15.975 -22.992   1.844  0.00  0.00    +0.000 OA
ATOM     24  H   UNL     1     -15.579 -23.886   1.876  0.00  0.00    +0.000 HD
ENDBRANCH   9  23
BRANCH   8  25
ATOM     25  O   UNL     1     -15.582 -18.790   7.105  0.00  0.00    +0.000 OA
ATOM     26  H   UNL     1     -15.323 -17.945   7.513  0.00  0.00    +0.000 HD
ENDBRANCH   8  25
BRANCH  18  27
ATOM     27  O   UNL     1     -11.247 -18.118   5.096  0.00  0.00    +0.000 OA
BRANCH  27  29
ATOM     28  O   UNL     1     -10.736 -15.950   5.492  0.00  0.00    +0.000 OA
ATOM     29  C   UNL     1     -10.367 -17.100   5.280  0.00  0.00    +0.000 C 
BRANCH  29  30
ATOM     30  C   UNL     1      -8.902 -17.477   5.041  0.00  0.00    +0.000 C 
BRANCH  30  31
ATOM     31  O   UNL     1      -8.111 -17.638   6.224  0.00  0.00    +0.000 OA
ATOM     32  H   UNL     1      -7.183 -17.677   5.926  0.00  0.00    +0.000 HD
ENDBRANCH  30  31
BRANCH  30  33
ATOM     33  C   UNL     1      -8.274 -16.406   4.107  0.00  0.00    +0.000 C 
BRANCH  33  34
ATOM     34  C   UNL     1      -7.184 -17.021   3.241  0.00  0.00    +0.000 A 
ATOM     35  C   UNL     1      -5.976 -17.425   3.835  0.00  0.00    +0.000 A 
ATOM     36  C   UNL     1      -7.332 -17.171   1.853  0.00  0.00    +0.000 A 
ATOM     37  C   UNL     1      -4.953 -17.980   3.065  0.00  0.00    +0.000 A 
ATOM     38  C   UNL     1      -6.309 -17.729   1.085  0.00  0.00    +0.000 A 
ATOM     39  C   UNL     1      -5.121 -18.135   1.691  0.00  0.00    +0.000 A 
ENDBRANCH  33  34
BRANCH  33  41
ATOM     40  O   UNL     1      -7.404 -13.095   5.274  0.00  0.00    +0.000 OA
ATOM     41  N   UNL     1      -7.749 -15.283   4.895  0.00  0.00    +0.000 N 
ATOM     42  C   UNL     1      -7.395 -14.029   4.478  0.00  0.00    +0.000 C 
ATOM     43  H   UNL     1      -7.926 -15.346   5.893  0.00  0.00    +0.000 HD
BRANCH  42  44
ATOM     44  C   UNL     1      -7.045 -13.780   3.061  0.00  0.00    +0.000 A 
ATOM     45  C   UNL     1      -5.741 -13.958   2.589  0.00  0.00    +0.000 A 
ATOM     46  C   UNL     1      -8.038 -13.289   2.204  0.00  0.00    +0.000 A 
ATOM     47  C   UNL     1      -5.447 -13.704   1.249  0.00  0.00    +0.000 A 
ATOM     48  C   UNL     1      -7.740 -13.033   0.866  0.00  0.00    +0.000 A 
ATOM     49  C   UNL     1      -6.447 -13.250   0.388  0.00  0.00    +0.000 A 
ENDBRANCH  42  44
ENDBRANCH  33  41
ENDBRANCH  30  33
ENDBRANCH  29  30
ENDBRANCH  27  29
ENDBRANCH  18  27
BRANCH  17  50
ATOM     50  O   UNL     1     -12.725 -23.730   5.821  0.00  0.00    +0.000 OA
BRANCH  50  52
ATOM     51  O   UNL     1     -10.779 -24.512   6.601  0.00  0.00    +0.000 OA
ATOM     52  C   UNL     1     -11.802 -24.709   5.953  0.00  0.00    +0.000 C 
ATOM     53  C   UNL     1     -12.032 -25.993   5.214  0.00  0.00    +0.000 C 
ENDBRANCH  50  52
ENDBRANCH  17  50
BRANCH   7  54
ATOM     54  O   UNL     1     -13.824 -19.106   4.115  0.00  0.00    +0.000 OA
BRANCH  54  56
ATOM     55  O   UNL     1     -14.982 -17.467   4.215  0.00  0.00    +0.000 OA
ATOM     56  C   UNL     1     -13.877 -17.773   3.779  0.00  0.00    +0.000 C 
BRANCH  56  57
ATOM     57  C   UNL     1     -12.616 -16.902   2.633  0.00  0.00    +0.000 A 
ATOM     58  C   UNL     1     -12.473 -15.456   2.479  0.00  0.00    +0.000 A 
ATOM     59  C   UNL     1     -11.565 -17.508   1.879  0.00  0.00    +0.000 A 
ATOM     60  C   UNL     1     -11.486 -14.767   1.732  0.00  0.00    +0.000 A 
ATOM     61  C   UNL     1     -10.566 -16.833   1.122  0.00  0.00    +0.000 A 
ATOM     62  C   UNL     1     -10.521 -15.461   1.050  0.00  0.00    +0.000 A 
ENDBRANCH  56  57
ENDBRANCH  54  56
ENDBRANCH   7  54
BRANCH   4  63
ATOM     63  O   UNL     1     -14.718 -18.637   1.064  0.00  0.00    +0.000 OA
BRANCH  63  65
ATOM     64  O   UNL     1     -15.177 -16.540   0.438  0.00  0.00    +0.000 OA
ATOM     65  C   UNL     1     -14.792 -17.665   0.126  0.00  0.00    +0.000 C 
ATOM     66  C   UNL     1     -14.517 -18.003  -1.304  0.00  0.00    +0.000 C 
ENDBRANCH  63  65
ENDBRANCH   4  63
TORSDOF 17
ENDMDL
