MODEL 1
REMARK VINA RESULT:      -7.0      0.000      0.000
REMARK  Name = 
REMARK  5 active torsions:
REMARK  status: ('A' for Active; 'I' for Inactive)
REMARK    1  A    between atoms: O_1  and  C_16
REMARK    2  A    between atoms: O_3  and  C_25
REMARK    3  A    between atoms: C_11  and  C_22
REMARK    4  A    between atoms: C_16  and  C_28
REMARK    5  A    between atoms: C_29  and  C_31
REMARK                            x       y       z     vdW  Elec       q    Type
REMARK                         _______ _______ _______ _____ _____    ______ ____
ROOT
ATOM      1  O   UNL     1      -8.007 -14.416   2.665  0.00  0.00    +0.000 OA
ATOM      2  N   UNL     1       0.188 -18.302  -0.144  0.00  0.00    +0.000 NA
ATOM      3  C   UNL     1      -3.508 -17.230  -0.015  0.00  0.00    +0.000 C 
ATOM      4  C   UNL     1      -4.734 -17.587   0.867  0.00  0.00    +0.000 C 
ATOM      5  C   UNL     1      -4.916 -15.298   0.153  0.00  0.00    +0.000 C 
ATOM      6  C   UNL     1      -5.308 -16.230   1.307  0.00  0.00    +0.000 C 
ATOM      7  C   UNL     1      -2.200 -17.899   0.449  0.00  0.00    +0.000 C 
ATOM      8  C   UNL     1      -3.456 -15.689  -0.061  0.00  0.00    +0.000 C 
ATOM      9  C   UNL     1      -5.277 -13.816   0.440  0.00  0.00    +0.000 C 
ATOM     10  C   UNL     1      -2.435 -19.417   0.614  0.00  0.00    +0.000 C 
ATOM     11  C   UNL     1      -4.382 -18.482   2.051  0.00  0.00    +0.000 C 
ATOM     12  C   UNL     1      -6.821 -13.780   0.649  0.00  0.00    +0.000 C 
ATOM     13  C   UNL     1      -3.560 -19.702   1.641  0.00  0.00    +0.000 C 
ATOM     14  C   UNL     1      -1.105 -20.160   0.932  0.00  0.00    +0.000 C 
ATOM     15  C   UNL     1      -6.804 -16.193   1.584  0.00  0.00    +0.000 C 
ATOM     16  C   UNL     1      -1.060 -17.627  -0.541  0.00  0.00    +0.000 C 
ATOM     17  C   UNL     1       0.006 -19.780  -0.117  0.00  0.00    +0.000 C 
ATOM     18  C   UNL     1      -4.939 -12.938  -0.792  0.00  0.00    +0.000 C 
ATOM     19  C   UNL     1      -7.252 -14.748   1.753  0.00  0.00    +0.000 C 
ATOM     20  C   UNL     1      -4.518 -13.264   1.672  0.00  0.00    +0.000 C 
ATOM     21  C   UNL     1      -7.354 -12.360   0.836  0.00  0.00    +0.000 C 
ATOM     22  C   UNL     1      -5.496 -11.515  -0.687  0.00  0.00    +0.000 C 
ATOM     23  C   UNL     1      -6.991 -11.487  -0.367  0.00  0.00    +0.000 C 
ATOM     24  C   UNL     1       1.349 -20.481   0.211  0.00  0.00    +0.000 C 
ATOM     25  C   UNL     1       1.254 -17.901  -1.084  0.00  0.00    +0.000 C 
ATOM     26  C   UNL     1      -1.328 -21.678   0.985  0.00  0.00    +0.000 C 
ATOM     27  C   UNL     1       2.616 -18.511  -0.736  0.00  0.00    +0.000 C 
ATOM     28  C   UNL     1       2.491 -20.033  -0.695  0.00  0.00    +0.000 C 
ATOM     29  C   UNL     1       3.177 -17.944   0.570  0.00  0.00    +0.000 C 
ENDROOT
BRANCH  14  30
ATOM     30  O   UNL     1      -0.662 -19.743   2.235  0.00  0.00    +0.000 OA
ATOM     31  H   UNL     1      -0.127 -18.939   2.077  0.00  0.00    +0.000 HD
ENDBRANCH  14  30
BRANCH  23  32
ATOM     32  O   UNL     1      -7.371 -10.138  -0.117  0.00  0.00    +0.000 OA
ATOM     33  H   UNL     1      -6.936  -9.854   0.706  0.00  0.00    +0.000 HD
ENDBRANCH  23  32
TORSDOF 2
ENDMDL
MODEL 2
REMARK VINA RESULT:      -6.6     10.219     13.054
REMARK  Name = 
REMARK  5 active torsions:
REMARK  status: ('A' for Active; 'I' for Inactive)
REMARK    1  A    between atoms: O_1  and  C_16
REMARK    2  A    between atoms: O_3  and  C_25
REMARK    3  A    between atoms: C_11  and  C_22
REMARK    4  A    between atoms: C_16  and  C_28
REMARK    5  A    between atoms: C_29  and  C_31
REMARK                            x       y       z     vdW  Elec       q    Type
REMARK                         _______ _______ _______ _____ _____    ______ ____
ROOT
ATOM      1  O   UNL     1     -19.691 -17.419  -5.481  0.00  0.00    +0.000 OA
ATOM      2  N   UNL     1     -12.891 -17.643   1.142  0.00  0.00    +0.000 NA
ATOM      3  C   UNL     1     -14.840 -18.195  -2.132  0.00  0.00    +0.000 C 
ATOM      4  C   UNL     1     -16.099 -19.001  -2.548  0.00  0.00    +0.000 C 
ATOM      5  C   UNL     1     -15.953 -17.015  -3.896  0.00  0.00    +0.000 C 
ATOM      6  C   UNL     1     -16.978 -17.992  -3.305  0.00  0.00    +0.000 C 
ATOM      7  C   UNL     1     -14.547 -18.248  -0.620  0.00  0.00    +0.000 C 
ATOM      8  C   UNL     1     -15.046 -16.772  -2.694  0.00  0.00    +0.000 C 
ATOM      9  C   UNL     1     -16.624 -15.808  -4.604  0.00  0.00    +0.000 C 
ATOM     10  C   UNL     1     -14.532 -19.721  -0.156  0.00  0.00    +0.000 C 
ATOM     11  C   UNL     1     -16.825 -19.635  -1.366  0.00  0.00    +0.000 C 
ATOM     12  C   UNL     1     -17.503 -16.408  -5.743  0.00  0.00    +0.000 C 
ATOM     13  C   UNL     1     -15.885 -20.416  -0.451  0.00  0.00    +0.000 C 
ATOM     14  C   UNL     1     -14.088 -19.837   1.331  0.00  0.00    +0.000 C 
ATOM     15  C   UNL     1     -17.895 -18.569  -4.373  0.00  0.00    +0.000 C 
ATOM     16  C   UNL     1     -13.217 -17.557  -0.291  0.00  0.00    +0.000 C 
ATOM     17  C   UNL     1     -12.737 -19.062   1.568  0.00  0.00    +0.000 C 
ATOM     18  C   UNL     1     -15.546 -14.905  -5.255  0.00  0.00    +0.000 C 
ATOM     19  C   UNL     1     -18.496 -17.435  -5.193  0.00  0.00    +0.000 C 
ATOM     20  C   UNL     1     -17.464 -14.955  -3.620  0.00  0.00    +0.000 C 
ATOM     21  C   UNL     1     -18.153 -15.331  -6.611  0.00  0.00    +0.000 C 
ATOM     22  C   UNL     1     -16.135 -13.839  -6.183  0.00  0.00    +0.000 C 
ATOM     23  C   UNL     1     -17.088 -14.422  -7.227  0.00  0.00    +0.000 C 
ATOM     24  C   UNL     1     -12.304 -19.134   3.054  0.00  0.00    +0.000 C 
ATOM     25  C   UNL     1     -11.660 -16.865   1.388  0.00  0.00    +0.000 C 
ATOM     26  C   UNL     1     -13.969 -21.309   1.751  0.00  0.00    +0.000 C 
ATOM     27  C   UNL     1     -11.252 -16.846   2.864  0.00  0.00    +0.000 C 
ATOM     28  C   UNL     1     -11.078 -18.280   3.359  0.00  0.00    +0.000 C 
ATOM     29  C   UNL     1     -12.247 -16.058   3.721  0.00  0.00    +0.000 C 
ENDROOT
BRANCH  14  30
ATOM     30  O   UNL     1     -15.107 -19.236   2.149  0.00  0.00    +0.000 OA
ATOM     31  H   UNL     1     -15.003 -19.651   3.029  0.00  0.00    +0.000 HD
ENDBRANCH  14  30
BRANCH  23  32
ATOM     32  O   UNL     1     -17.712 -13.345  -7.916  0.00  0.00    +0.000 OA
ATOM     33  H   UNL     1     -17.706 -12.571  -7.327  0.00  0.00    +0.000 HD
ENDBRANCH  23  32
TORSDOF 2
ENDMDL
MODEL 3
REMARK VINA RESULT:      -6.4      9.680     13.380
REMARK  Name = 
REMARK  5 active torsions:
REMARK  status: ('A' for Active; 'I' for Inactive)
REMARK    1  A    between atoms: O_1  and  C_16
REMARK    2  A    between atoms: O_3  and  C_25
REMARK    3  A    between atoms: C_11  and  C_22
REMARK    4  A    between atoms: C_16  and  C_28
REMARK    5  A    between atoms: C_29  and  C_31
REMARK                            x       y       z     vdW  Elec       q    Type
REMARK                         _______ _______ _______ _____ _____    ______ ____
ROOT
ATOM      1  O   UNL     1     -15.739 -25.690   4.231  0.00  0.00    +0.000 OA
ATOM      2  N   UNL     1     -12.520 -17.160   1.581  0.00  0.00    +0.000 NA
ATOM      3  C   UNL     1     -12.854 -20.966   2.063  0.00  0.00    +0.000 C 
ATOM      4  C   UNL     1     -12.734 -21.944   3.262  0.00  0.00    +0.000 C 
ATOM      5  C   UNL     1     -14.361 -22.795   1.709  0.00  0.00    +0.000 C 
ATOM      6  C   UNL     1     -14.014 -22.794   3.203  0.00  0.00    +0.000 C 
ATOM      7  C   UNL     1     -12.720 -19.484   2.463  0.00  0.00    +0.000 C 
ATOM      8  C   UNL     1     -14.182 -21.320   1.361  0.00  0.00    +0.000 C 
ATOM      9  C   UNL     1     -15.717 -23.490   1.416  0.00  0.00    +0.000 C 
ATOM     10  C   UNL     1     -11.436 -19.296   3.300  0.00  0.00    +0.000 C 
ATOM     11  C   UNL     1     -12.566 -21.236   4.602  0.00  0.00    +0.000 C 
ATOM     12  C   UNL     1     -15.571 -24.955   1.927  0.00  0.00    +0.000 C 
ATOM     13  C   UNL     1     -11.462 -20.181   4.574  0.00  0.00    +0.000 C 
ATOM     14  C   UNL     1     -11.173 -17.792   3.598  0.00  0.00    +0.000 C 
ATOM     15  C   UNL     1     -13.910 -24.205   3.763  0.00  0.00    +0.000 C 
ATOM     16  C   UNL     1     -12.702 -18.578   1.225  0.00  0.00    +0.000 C 
ATOM     17  C   UNL     1     -11.215 -16.949   2.269  0.00  0.00    +0.000 C 
ATOM     18  C   UNL     1     -15.972 -23.539  -0.112  0.00  0.00    +0.000 C 
ATOM     19  C   UNL     1     -15.164 -24.988   3.402  0.00  0.00    +0.000 C 
ATOM     20  C   UNL     1     -16.901 -22.760   2.098  0.00  0.00    +0.000 C 
ATOM     21  C   UNL     1     -16.798 -25.812   1.611  0.00  0.00    +0.000 C 
ATOM     22  C   UNL     1     -17.158 -24.429  -0.496  0.00  0.00    +0.000 C 
ATOM     23  C   UNL     1     -17.065 -25.831   0.105  0.00  0.00    +0.000 C 
ATOM     24  C   UNL     1     -10.996 -15.441   2.554  0.00  0.00    +0.000 C 
ATOM     25  C   UNL     1     -12.623 -16.353   0.349  0.00  0.00    +0.000 C 
ATOM     26  C   UNL     1      -9.838 -17.607   4.335  0.00  0.00    +0.000 C 
ATOM     27  C   UNL     1     -12.495 -14.849   0.610  0.00  0.00    +0.000 C 
ATOM     28  C   UNL     1     -11.170 -14.569   1.316  0.00  0.00    +0.000 C 
ATOM     29  C   UNL     1     -13.691 -14.302   1.394  0.00  0.00    +0.000 C 
ENDROOT
BRANCH  14  30
ATOM     30  O   UNL     1     -12.215 -17.321   4.469  0.00  0.00    +0.000 OA
ATOM     31  H   UNL     1     -11.748 -16.916   5.228  0.00  0.00    +0.000 HD
ENDBRANCH  14  30
BRANCH  23  32
ATOM     32  O   UNL     1     -18.285 -26.515  -0.160  0.00  0.00    +0.000 OA
ATOM     33  H   UNL     1     -18.392 -27.206   0.517  0.00  0.00    +0.000 HD
ENDBRANCH  23  32
TORSDOF 2
ENDMDL
MODEL 4
REMARK VINA RESULT:      -6.3     16.918     22.496
REMARK  Name = 
REMARK  5 active torsions:
REMARK  status: ('A' for Active; 'I' for Inactive)
REMARK    1  A    between atoms: O_1  and  C_16
REMARK    2  A    between atoms: O_3  and  C_25
REMARK    3  A    between atoms: C_11  and  C_22
REMARK    4  A    between atoms: C_16  and  C_28
REMARK    5  A    between atoms: C_29  and  C_31
REMARK                            x       y       z     vdW  Elec       q    Type
REMARK                         _______ _______ _______ _____ _____    ______ ____
ROOT
ATOM      1  O   UNL     1       0.922 -40.407  -1.320  0.00  0.00    +0.000 OA
ATOM      2  N   UNL     1      -6.467 -34.502  -2.146  0.00  0.00    +0.000 NA
ATOM      3  C   UNL     1      -4.246 -37.643  -2.317  0.00  0.00    +0.000 C 
ATOM      4  C   UNL     1      -2.987 -38.065  -3.120  0.00  0.00    +0.000 C 
ATOM      5  C   UNL     1      -2.928 -39.107  -0.954  0.00  0.00    +0.000 C 
ATOM      6  C   UNL     1      -2.002 -38.583  -2.059  0.00  0.00    +0.000 C 
ATOM      7  C   UNL     1      -4.680 -36.187  -2.575  0.00  0.00    +0.000 C 
ATOM      8  C   UNL     1      -3.932 -37.964  -0.841  0.00  0.00    +0.000 C 
ATOM      9  C   UNL     1      -2.146 -39.565   0.306  0.00  0.00    +0.000 C 
ATOM     10  C   UNL     1      -4.797 -35.952  -4.097  0.00  0.00    +0.000 C 
ATOM     11  C   UNL     1      -2.400 -36.934  -3.957  0.00  0.00    +0.000 C 
ATOM     12  C   UNL     1      -1.190 -40.701  -0.167  0.00  0.00    +0.000 C 
ATOM     13  C   UNL     1      -3.451 -36.230  -4.813  0.00  0.00    +0.000 C 
ATOM     14  C   UNL     1      -5.381 -34.543  -4.405  0.00  0.00    +0.000 C 
ATOM     15  C   UNL     1      -1.013 -39.644  -2.522  0.00  0.00    +0.000 C 
ATOM     16  C   UNL     1      -6.006 -35.873  -1.870  0.00  0.00    +0.000 C 
ATOM     17  C   UNL     1      -6.716 -34.309  -3.602  0.00  0.00    +0.000 C 
ATOM     18  C   UNL     1      -3.122 -40.164   1.351  0.00  0.00    +0.000 C 
ATOM     19  C   UNL     1      -0.294 -40.229  -1.315  0.00  0.00    +0.000 C 
ATOM     20  C   UNL     1      -1.368 -38.396   0.961  0.00  0.00    +0.000 C 
ATOM     21  C   UNL     1      -0.419 -41.339   0.989  0.00  0.00    +0.000 C 
ATOM     22  C   UNL     1      -2.407 -40.867   2.508  0.00  0.00    +0.000 C 
ATOM     23  C   UNL     1      -1.386 -41.901   2.033  0.00  0.00    +0.000 C 
ATOM     24  C   UNL     1      -7.288 -32.893  -3.867  0.00  0.00    +0.000 C 
ATOM     25  C   UNL     1      -7.684 -34.249  -1.348  0.00  0.00    +0.000 C 
ATOM     26  C   UNL     1      -5.597 -34.360  -5.914  0.00  0.00    +0.000 C 
ATOM     27  C   UNL     1      -8.226 -32.828  -1.523  0.00  0.00    +0.000 C 
ATOM     28  C   UNL     1      -8.502 -32.571  -3.003  0.00  0.00    +0.000 C 
ATOM     29  C   UNL     1      -7.284 -31.780  -0.923  0.00  0.00    +0.000 C 
ENDROOT
BRANCH  14  30
ATOM     30  O   UNL     1      -4.420 -33.560  -3.985  0.00  0.00    +0.000 OA
ATOM     31  H   UNL     1      -4.053 -33.193  -4.815  0.00  0.00    +0.000 HD
ENDBRANCH  14  30
BRANCH  23  32
ATOM     32  O   UNL     1      -0.658 -42.365   3.165  0.00  0.00    +0.000 OA
ATOM     33  H   UNL     1      -0.536 -41.612   3.769  0.00  0.00    +0.000 HD
ENDBRANCH  23  32
TORSDOF 2
ENDMDL
MODEL 5
REMARK VINA RESULT:      -6.2     11.881     16.610
REMARK  Name = 
REMARK  5 active torsions:
REMARK  status: ('A' for Active; 'I' for Inactive)
REMARK    1  A    between atoms: O_1  and  C_16
REMARK    2  A    between atoms: O_3  and  C_25
REMARK    3  A    between atoms: C_11  and  C_22
REMARK    4  A    between atoms: C_16  and  C_28
REMARK    5  A    between atoms: C_29  and  C_31
REMARK                            x       y       z     vdW  Elec       q    Type
REMARK                         _______ _______ _______ _____ _____    ______ ____
ROOT
ATOM      1  O   UNL     1       5.436 -32.001   4.690  0.00  0.00    +0.000 OA
ATOM      2  N   UNL     1       5.588 -25.864  -2.554  0.00  0.00    +0.000 NA
ATOM      3  C   UNL     1       6.289 -28.926  -0.326  0.00  0.00    +0.000 C 
ATOM      4  C   UNL     1       7.023 -29.171   1.019  0.00  0.00    +0.000 C 
ATOM      5  C   UNL     1       5.196 -30.722   0.823  0.00  0.00    +0.000 C 
ATOM      6  C   UNL     1       6.021 -29.966   1.872  0.00  0.00    +0.000 C 
ATOM      7  C   UNL     1       6.220 -27.440  -0.728  0.00  0.00    +0.000 C 
ATOM      8  C   UNL     1       4.915 -29.614  -0.188  0.00  0.00    +0.000 C 
ATOM      9  C   UNL     1       4.010 -31.502   1.451  0.00  0.00    +0.000 C 
ATOM     10  C   UNL     1       7.637 -26.829  -0.665  0.00  0.00    +0.000 C 
ATOM     11  C   UNL     1       7.477 -27.884   1.700  0.00  0.00    +0.000 C 
ATOM     12  C   UNL     1       4.642 -32.512   2.457  0.00  0.00    +0.000 C 
ATOM     13  C   UNL     1       8.242 -26.959   0.756  0.00  0.00    +0.000 C 
ATOM     14  C   UNL     1       7.646 -25.371  -1.210  0.00  0.00    +0.000 C 
ATOM     15  C   UNL     1       6.620 -30.906   2.909  0.00  0.00    +0.000 C 
ATOM     16  C   UNL     1       5.614 -27.274  -2.128  0.00  0.00    +0.000 C 
ATOM     17  C   UNL     1       6.968 -25.307  -2.629  0.00  0.00    +0.000 C 
ATOM     18  C   UNL     1       3.268 -32.314   0.359  0.00  0.00    +0.000 C 
ATOM     19  C   UNL     1       5.524 -31.794   3.481  0.00  0.00    +0.000 C 
ATOM     20  C   UNL     1       2.999 -30.557   2.147  0.00  0.00    +0.000 C 
ATOM     21  C   UNL     1       3.603 -33.440   3.087  0.00  0.00    +0.000 C 
ATOM     22  C   UNL     1       2.251 -33.304   0.934  0.00  0.00    +0.000 C 
ATOM     23  C   UNL     1       2.851 -34.216   2.005  0.00  0.00    +0.000 C 
ATOM     24  C   UNL     1       6.932 -23.854  -3.167  0.00  0.00    +0.000 C 
ATOM     25  C   UNL     1       4.896 -25.783  -3.855  0.00  0.00    +0.000 C 
ATOM     26  C   UNL     1       9.076 -24.812  -1.247  0.00  0.00    +0.000 C 
ATOM     27  C   UNL     1       4.769 -24.347  -4.374  0.00  0.00    +0.000 C 
ATOM     28  C   UNL     1       6.158 -23.721  -4.474  0.00  0.00    +0.000 C 
ATOM     29  C   UNL     1       3.822 -23.510  -3.510  0.00  0.00    +0.000 C 
ENDROOT
BRANCH  14  30
ATOM     30  O   UNL     1       6.886 -24.553  -0.305  0.00  0.00    +0.000 OA
ATOM     31  H   UNL     1       6.718 -23.722  -0.793  0.00  0.00    +0.000 HD
ENDBRANCH  14  30
BRANCH  23  32
ATOM     32  O   UNL     1       1.797 -34.969   2.595  0.00  0.00    +0.000 OA
ATOM     33  H   UNL     1       1.453 -34.459   3.349  0.00  0.00    +0.000 HD
ENDBRANCH  23  32
TORSDOF 2
ENDMDL
MODEL 6
REMARK VINA RESULT:      -6.1     17.168     20.990
REMARK  Name = 
REMARK  5 active torsions:
REMARK  status: ('A' for Active; 'I' for Inactive)
REMARK    1  A    between atoms: O_1  and  C_16
REMARK    2  A    between atoms: O_3  and  C_25
REMARK    3  A    between atoms: C_11  and  C_22
REMARK    4  A    between atoms: C_16  and  C_28
REMARK    5  A    between atoms: C_29  and  C_31
REMARK                            x       y       z     vdW  Elec       q    Type
REMARK                         _______ _______ _______ _____ _____    ______ ____
ROOT
ATOM      1  O   UNL     1       5.095 -36.313   0.799  0.00  0.00    +0.000 OA
ATOM      2  N   UNL     1       2.380 -33.965   9.589  0.00  0.00    +0.000 NA
ATOM      3  C   UNL     1       4.485 -34.398   6.394  0.00  0.00    +0.000 C 
ATOM      4  C   UNL     1       5.126 -35.597   5.646  0.00  0.00    +0.000 C 
ATOM      5  C   UNL     1       4.484 -33.920   4.046  0.00  0.00    +0.000 C 
ATOM      6  C   UNL     1       4.670 -35.436   4.186  0.00  0.00    +0.000 C 
ATOM      7  C   UNL     1       3.636 -34.816   7.611  0.00  0.00    +0.000 C 
ATOM      8  C   UNL     1       3.716 -33.596   5.324  0.00  0.00    +0.000 C 
ATOM      9  C   UNL     1       3.885 -33.520   2.671  0.00  0.00    +0.000 C 
ATOM     10  C   UNL     1       4.468 -35.749   8.516  0.00  0.00    +0.000 C 
ATOM     11  C   UNL     1       4.738 -36.950   6.232  0.00  0.00    +0.000 C 
ATOM     12  C   UNL     1       4.891 -34.033   1.596  0.00  0.00    +0.000 C 
ATOM     13  C   UNL     1       4.933 -37.012   7.746  0.00  0.00    +0.000 C 
ATOM     14  C   UNL     1       3.710 -36.075   9.836  0.00  0.00    +0.000 C 
ATOM     15  C   UNL     1       5.607 -35.994   3.125  0.00  0.00    +0.000 C 
ATOM     16  C   UNL     1       3.149 -33.588   8.391  0.00  0.00    +0.000 C 
ATOM     17  C   UNL     1       3.221 -34.751  10.535  0.00  0.00    +0.000 C 
ATOM     18  C   UNL     1       3.803 -31.977   2.554  0.00  0.00    +0.000 C 
ATOM     19  C   UNL     1       5.146 -35.534   1.749  0.00  0.00    +0.000 C 
ATOM     20  C   UNL     1       2.470 -34.115   2.463  0.00  0.00    +0.000 C 
ATOM     21  C   UNL     1       4.495 -33.620   0.179  0.00  0.00    +0.000 C 
ATOM     22  C   UNL     1       3.463 -31.499   1.139  0.00  0.00    +0.000 C 
ATOM     23  C   UNL     1       4.383 -32.098   0.075  0.00  0.00    +0.000 C 
ATOM     24  C   UNL     1       2.428 -35.061  11.830  0.00  0.00    +0.000 C 
ATOM     25  C   UNL     1       1.861 -32.733  10.217  0.00  0.00    +0.000 C 
ATOM     26  C   UNL     1       4.589 -36.912  10.777  0.00  0.00    +0.000 C 
ATOM     27  C   UNL     1       1.000 -33.012  11.454  0.00  0.00    +0.000 C 
ATOM     28  C   UNL     1       1.814 -33.819  12.464  0.00  0.00    +0.000 C 
ATOM     29  C   UNL     1      -0.314 -33.707  11.089  0.00  0.00    +0.000 C 
ENDROOT
BRANCH  14  30
ATOM     30  O   UNL     1       2.557 -36.867   9.504  0.00  0.00    +0.000 OA
ATOM     31  H   UNL     1       2.507 -36.846   8.527  0.00  0.00    +0.000 HD
ENDBRANCH  14  30
BRANCH  23  32
ATOM     32  O   UNL     1       3.881 -31.737  -1.207  0.00  0.00    +0.000 OA
ATOM     33  H   UNL     1       3.335 -32.474  -1.531  0.00  0.00    +0.000 HD
ENDBRANCH  23  32
TORSDOF 2
ENDMDL
MODEL 7
REMARK VINA RESULT:      -6.0      9.700     12.605
REMARK  Name = 
REMARK  5 active torsions:
REMARK  status: ('A' for Active; 'I' for Inactive)
REMARK    1  A    between atoms: O_1  and  C_16
REMARK    2  A    between atoms: O_3  and  C_25
REMARK    3  A    between atoms: C_11  and  C_22
REMARK    4  A    between atoms: C_16  and  C_28
REMARK    5  A    between atoms: C_29  and  C_31
REMARK                            x       y       z     vdW  Elec       q    Type
REMARK                         _______ _______ _______ _____ _____    ______ ____
ROOT
ATOM      1  O   UNL     1     -15.301 -15.058   1.026  0.00  0.00    +0.000 OA
ATOM      2  N   UNL     1     -13.839 -24.227   3.011  0.00  0.00    +0.000 NA
ATOM      3  C   UNL     1     -14.218 -20.902   1.105  0.00  0.00    +0.000 C 
ATOM      4  C   UNL     1     -15.394 -19.949   0.766  0.00  0.00    +0.000 C 
ATOM      5  C   UNL     1     -13.383 -18.658   1.027  0.00  0.00    +0.000 C 
ATOM      6  C   UNL     1     -14.904 -18.556   1.193  0.00  0.00    +0.000 C 
ATOM      7  C   UNL     1     -14.623 -22.082   2.011  0.00  0.00    +0.000 C 
ATOM      8  C   UNL     1     -13.102 -20.006   1.683  0.00  0.00    +0.000 C 
ATOM      9  C   UNL     1     -12.644 -17.391   1.536  0.00  0.00    +0.000 C 
ATOM     10  C   UNL     1     -15.852 -22.792   1.403  0.00  0.00    +0.000 C 
ATOM     11  C   UNL     1     -16.701 -20.341   1.447  0.00  0.00    +0.000 C 
ATOM     12  C   UNL     1     -13.191 -16.202   0.690  0.00  0.00    +0.000 C 
ATOM     13  C   UNL     1     -17.046 -21.816   1.251  0.00  0.00    +0.000 C 
ATOM     14  C   UNL     1     -16.205 -24.083   2.198  0.00  0.00    +0.000 C 
ATOM     15  C   UNL     1     -15.482 -17.377   0.423  0.00  0.00    +0.000 C 
ATOM     16  C   UNL     1     -13.458 -23.064   2.192  0.00  0.00    +0.000 C 
ATOM     17  C   UNL     1     -14.935 -24.998   2.360  0.00  0.00    +0.000 C 
ATOM     18  C   UNL     1     -11.124 -17.515   1.263  0.00  0.00    +0.000 C 
ATOM     19  C   UNL     1     -14.716 -16.111   0.784  0.00  0.00    +0.000 C 
ATOM     20  C   UNL     1     -12.864 -17.165   3.053  0.00  0.00    +0.000 C 
ATOM     21  C   UNL     1     -12.479 -14.886   0.999  0.00  0.00    +0.000 C 
ATOM     22  C   UNL     1     -10.362 -16.208   1.503  0.00  0.00    +0.000 C 
ATOM     23  C   UNL     1     -10.974 -15.021   0.760  0.00  0.00    +0.000 C 
ATOM     24  C   UNL     1     -15.261 -26.269   3.186  0.00  0.00    +0.000 C 
ATOM     25  C   UNL     1     -12.639 -25.060   3.225  0.00  0.00    +0.000 C 
ATOM     26  C   UNL     1     -17.358 -24.840   1.522  0.00  0.00    +0.000 C 
ATOM     27  C   UNL     1     -12.911 -26.281   4.109  0.00  0.00    +0.000 C 
ATOM     28  C   UNL     1     -14.030 -27.114   3.490  0.00  0.00    +0.000 C 
ATOM     29  C   UNL     1     -13.224 -25.880   5.553  0.00  0.00    +0.000 C 
ENDROOT
BRANCH  14  30
ATOM     30  O   UNL     1     -16.655 -23.691   3.506  0.00  0.00    +0.000 OA
ATOM     31  H   UNL     1     -16.768 -24.530   3.997  0.00  0.00    +0.000 HD
ENDBRANCH  14  30
BRANCH  23  32
ATOM     32  O   UNL     1     -10.309 -13.836   1.183  0.00  0.00    +0.000 OA
ATOM     33  H   UNL     1      -9.517 -13.725   0.628  0.00  0.00    +0.000 HD
ENDBRANCH  23  32
TORSDOF 2
ENDMDL
MODEL 8
REMARK VINA RESULT:      -5.9     11.640     15.505
REMARK  Name = 
REMARK  5 active torsions:
REMARK  status: ('A' for Active; 'I' for Inactive)
REMARK    1  A    between atoms: O_1  and  C_16
REMARK    2  A    between atoms: O_3  and  C_25
REMARK    3  A    between atoms: C_11  and  C_22
REMARK    4  A    between atoms: C_16  and  C_28
REMARK    5  A    between atoms: C_29  and  C_31
REMARK                            x       y       z     vdW  Elec       q    Type
REMARK                         _______ _______ _______ _____ _____    ______ ____
ROOT
ATOM      1  O   UNL     1     -14.128 -28.820   3.267  0.00  0.00    +0.000 OA
ATOM      2  N   UNL     1     -14.913 -19.803   0.397  0.00  0.00    +0.000 NA
ATOM      3  C   UNL     1     -15.452 -23.105   2.304  0.00  0.00    +0.000 C 
ATOM      4  C   UNL     1     -16.034 -24.501   1.957  0.00  0.00    +0.000 C 
ATOM      5  C   UNL     1     -14.294 -24.757   3.596  0.00  0.00    +0.000 C 
ATOM      6  C   UNL     1     -14.967 -25.499   2.435  0.00  0.00    +0.000 C 
ATOM      7  C   UNL     1     -15.381 -22.150   1.097  0.00  0.00    +0.000 C 
ATOM      8  C   UNL     1     -14.095 -23.372   2.988  0.00  0.00    +0.000 C 
ATOM      9  C   UNL     1     -13.071 -25.526   4.162  0.00  0.00    +0.000 C 
ATOM     10  C   UNL     1     -16.761 -22.101   0.404  0.00  0.00    +0.000 C 
ATOM     11  C   UNL     1     -16.363 -24.664   0.477  0.00  0.00    +0.000 C 
ATOM     12  C   UNL     1     -13.615 -26.901   4.656  0.00  0.00    +0.000 C 
ATOM     13  C   UNL     1     -17.201 -23.510  -0.069  0.00  0.00    +0.000 C 
ATOM     14  C   UNL     1     -16.784 -21.034  -0.728  0.00  0.00    +0.000 C 
ATOM     15  C   UNL     1     -15.473 -26.871   2.856  0.00  0.00    +0.000 C 
ATOM     16  C   UNL     1     -14.936 -20.747   1.528  0.00  0.00    +0.000 C 
ATOM     17  C   UNL     1     -16.273 -19.645  -0.190  0.00  0.00    +0.000 C 
ATOM     18  C   UNL     1     -12.487 -24.774   5.385  0.00  0.00    +0.000 C 
ATOM     19  C   UNL     1     -14.349 -27.640   3.535  0.00  0.00    +0.000 C 
ATOM     20  C   UNL     1     -11.955 -25.699   3.101  0.00  0.00    +0.000 C 
ATOM     21  C   UNL     1     -12.542 -27.743   5.346  0.00  0.00    +0.000 C 
ATOM     22  C   UNL     1     -11.443 -25.592   6.152  0.00  0.00    +0.000 C 
ATOM     23  C   UNL     1     -11.945 -26.984   6.533  0.00  0.00    +0.000 C 
ATOM     24  C   UNL     1     -16.251 -18.581  -1.317  0.00  0.00    +0.000 C 
ATOM     25  C   UNL     1     -14.373 -18.515   0.876  0.00  0.00    +0.000 C 
ATOM     26  C   UNL     1     -18.189 -20.915  -1.336  0.00  0.00    +0.000 C 
ATOM     27  C   UNL     1     -14.259 -17.467  -0.235  0.00  0.00    +0.000 C 
ATOM     28  C   UNL     1     -15.629 -17.260  -0.877  0.00  0.00    +0.000 C 
ATOM     29  C   UNL     1     -13.191 -17.843  -1.267  0.00  0.00    +0.000 C 
ENDROOT
BRANCH  14  30
ATOM     30  O   UNL     1     -15.898 -21.472  -1.772  0.00  0.00    +0.000 OA
ATOM     31  H   UNL     1     -15.987 -20.801  -2.479  0.00  0.00    +0.000 HD
ENDBRANCH  14  30
BRANCH  23  32
ATOM     32  O   UNL     1     -10.856 -27.720   7.078  0.00  0.00    +0.000 OA
ATOM     33  H   UNL     1     -11.223 -28.481   7.561  0.00  0.00    +0.000 HD
ENDBRANCH  23  32
TORSDOF 2
ENDMDL
MODEL 9
REMARK VINA RESULT:      -5.8     15.206     17.850
REMARK  Name = 
REMARK  5 active torsions:
REMARK  status: ('A' for Active; 'I' for Inactive)
REMARK    1  A    between atoms: O_1  and  C_16
REMARK    2  A    between atoms: O_3  and  C_25
REMARK    3  A    between atoms: C_11  and  C_22
REMARK    4  A    between atoms: C_16  and  C_28
REMARK    5  A    between atoms: C_29  and  C_31
REMARK                            x       y       z     vdW  Elec       q    Type
REMARK                         _______ _______ _______ _____ _____    ______ ____
ROOT
ATOM      1  O   UNL     1      -6.799 -32.074   8.597  0.00  0.00    +0.000 OA
ATOM      2  N   UNL     1      -8.699 -33.357  -0.618  0.00  0.00    +0.000 NA
ATOM      3  C   UNL     1      -9.006 -33.329   3.221  0.00  0.00    +0.000 C 
ATOM      4  C   UNL     1      -8.317 -34.079   4.392  0.00  0.00    +0.000 C 
ATOM      5  C   UNL     1      -8.919 -31.867   5.117  0.00  0.00    +0.000 C 
ATOM      6  C   UNL     1      -7.883 -32.971   5.365  0.00  0.00    +0.000 C 
ATOM      7  C   UNL     1      -8.409 -33.663   1.840  0.00  0.00    +0.000 C 
ATOM      8  C   UNL     1      -8.957 -31.832   3.593  0.00  0.00    +0.000 C 
ATOM      9  C   UNL     1      -8.601 -30.567   5.904  0.00  0.00    +0.000 C 
ATOM     10  C   UNL     1      -8.362 -35.197   1.663  0.00  0.00    +0.000 C 
ATOM     11  C   UNL     1      -7.149 -34.951   3.943  0.00  0.00    +0.000 C 
ATOM     12  C   UNL     1      -8.598 -30.964   7.411  0.00  0.00    +0.000 C 
ATOM     13  C   UNL     1      -7.513 -35.865   2.775  0.00  0.00    +0.000 C 
ATOM     14  C   UNL     1      -7.911 -35.583   0.224  0.00  0.00    +0.000 C 
ATOM     15  C   UNL     1      -7.807 -33.359   6.834  0.00  0.00    +0.000 C 
ATOM     16  C   UNL     1      -9.220 -33.007   0.715  0.00  0.00    +0.000 C 
ATOM     17  C   UNL     1      -8.780 -34.827  -0.850  0.00  0.00    +0.000 C 
ATOM     18  C   UNL     1      -9.724 -29.523   5.685  0.00  0.00    +0.000 C 
ATOM     19  C   UNL     1      -7.618 -32.108   7.681  0.00  0.00    +0.000 C 
ATOM     20  C   UNL     1      -7.249 -29.947   5.472  0.00  0.00    +0.000 C 
ATOM     21  C   UNL     1      -8.404 -29.761   8.334  0.00  0.00    +0.000 C 
ATOM     22  C   UNL     1      -9.615 -28.317   6.622  0.00  0.00    +0.000 C 
ATOM     23  C   UNL     1      -9.497 -28.718   8.093  0.00  0.00    +0.000 C 
ATOM     24  C   UNL     1      -8.315 -35.170  -2.288  0.00  0.00    +0.000 C 
ATOM     25  C   UNL     1      -9.464 -32.603  -1.631  0.00  0.00    +0.000 C 
ATOM     26  C   UNL     1      -7.975 -37.105   0.024  0.00  0.00    +0.000 C 
ATOM     27  C   UNL     1      -8.971 -32.856  -3.059  0.00  0.00    +0.000 C 
ATOM     28  C   UNL     1      -9.032 -34.353  -3.356  0.00  0.00    +0.000 C 
ATOM     29  C   UNL     1      -7.571 -32.280  -3.290  0.00  0.00    +0.000 C 
ENDROOT
BRANCH  14  30
ATOM     30  O   UNL     1      -6.540 -35.184   0.065  0.00  0.00    +0.000 OA
ATOM     31  H   UNL     1      -6.489 -34.288   0.456  0.00  0.00    +0.000 HD
ENDBRANCH  14  30
BRANCH  23  32
ATOM     32  O   UNL     1      -9.225 -27.548   8.856  0.00  0.00    +0.000 OA
ATOM     33  H   UNL     1      -8.790 -27.826   9.681  0.00  0.00    +0.000 HD
ENDBRANCH  23  32
TORSDOF 2
ENDMDL
