MODEL 1
REMARK VINA RESULT:      -5.3      0.000      0.000
REMARK  Name = PhIP.pdbqt.pdb
REMARK  2 active torsions:
REMARK  status: ('A' for Active; 'I' for Inactive)
REMARK    1  A    between atoms: N_4  and  C_9
REMARK    2  A    between atoms: C_7  and  C_10
REMARK                            x       y       z     vdW  Elec       q    Type
REMARK                         _______ _______ _______ _____ _____    ______ ____
ROOT
ATOM      1  N   UNL     1      -4.482 -35.546  -3.857  0.00  0.00    +0.000 N 
ATOM      2  N   UNL     1      -6.145 -33.843  -3.747  0.00  0.00    +0.000 NA
ATOM      3  N   UNL     1      -5.658 -32.821  -5.893  0.00  0.00    +0.000 NA
ATOM      4  C   UNL     1      -4.413 -34.853  -5.028  0.00  0.00    +0.000 C 
ATOM      5  C   UNL     1      -5.500 -33.779  -4.884  0.00  0.00    +0.000 C 
ATOM      6  C   UNL     1      -3.632 -33.698  -7.024  0.00  0.00    +0.000 C 
ATOM      7  C   UNL     1      -3.571 -34.699  -6.005  0.00  0.00    +0.000 C 
ATOM      8  C   UNL     1      -5.488 -34.899  -3.135  0.00  0.00    +0.000 C 
ATOM      9  C   UNL     1      -3.309 -36.119  -3.219  0.00  0.00    +0.000 C 
ATOM     10  C   UNL     1      -4.791 -32.918  -6.687  0.00  0.00    +0.000 C 
ENDROOT
BRANCH   6  11
ATOM     11  C   UNL     1      -2.769 -33.550  -8.180  0.00  0.00    +0.000 A 
ATOM     12  C   UNL     1      -2.163 -34.665  -8.762  0.00  0.00    +0.000 A 
ATOM     13  C   UNL     1      -2.531 -32.290  -8.734  0.00  0.00    +0.000 A 
ATOM     14  C   UNL     1      -1.333 -34.526  -9.874  0.00  0.00    +0.000 A 
ATOM     15  C   UNL     1      -1.701 -32.145  -9.845  0.00  0.00    +0.000 A 
ATOM     16  C   UNL     1      -1.102 -33.265 -10.414  0.00  0.00    +0.000 A 
ENDBRANCH   6  11
BRANCH   8  17
ATOM     17  N   UNL     1      -5.827 -35.169  -1.799  0.00  0.00    +0.000 NA
ATOM     18  H   UNL     1      -5.213 -35.842  -1.353  0.00  0.00    +0.000 HD
ATOM     19  H   UNL     1      -5.984 -34.330  -1.255  0.00  0.00    +0.000 HD
ENDBRANCH   8  17
TORSDOF 2
ENDMDL
MODEL 2
REMARK VINA RESULT:      -4.9     17.409     19.192
REMARK  Name = PhIP.pdbqt.pdb
REMARK  2 active torsions:
REMARK  status: ('A' for Active; 'I' for Inactive)
REMARK    1  A    between atoms: N_4  and  C_9
REMARK    2  A    between atoms: C_7  and  C_10
REMARK                            x       y       z     vdW  Elec       q    Type
REMARK                         _______ _______ _______ _____ _____    ______ ____
ROOT
ATOM      1  N   UNL     1      -1.276 -18.288 -15.164  0.00  0.00    +0.000 N 
ATOM      2  N   UNL     1      -1.760 -20.522 -15.836  0.00  0.00    +0.000 NA
ATOM      3  N   UNL     1      -4.109 -20.173 -16.338  0.00  0.00    +0.000 NA
ATOM      4  C   UNL     1      -2.583 -18.308 -15.546  0.00  0.00    +0.000 C 
ATOM      5  C   UNL     1      -2.823 -19.768 -15.957  0.00  0.00    +0.000 C 
ATOM      6  C   UNL     1      -4.986 -17.944 -15.696  0.00  0.00    +0.000 C 
ATOM      7  C   UNL     1      -3.639 -17.567 -15.398  0.00  0.00    +0.000 C 
ATOM      8  C   UNL     1      -0.851 -19.608 -15.327  0.00  0.00    +0.000 C 
ATOM      9  C   UNL     1      -0.789 -17.437 -14.092  0.00  0.00    +0.000 C 
ATOM     10  C   UNL     1      -4.882 -19.304 -16.148  0.00  0.00    +0.000 C 
ENDROOT
BRANCH   6  11
ATOM     11  C   UNL     1      -6.176 -17.118 -15.634  0.00  0.00    +0.000 A 
ATOM     12  C   UNL     1      -6.075 -15.737 -15.450  0.00  0.00    +0.000 A 
ATOM     13  C   UNL     1      -7.445 -17.688 -15.758  0.00  0.00    +0.000 A 
ATOM     14  C   UNL     1      -7.218 -14.941 -15.391  0.00  0.00    +0.000 A 
ATOM     15  C   UNL     1      -8.591 -16.896 -15.699  0.00  0.00    +0.000 A 
ATOM     16  C   UNL     1      -8.476 -15.521 -15.515  0.00  0.00    +0.000 A 
ENDBRANCH   6  11
BRANCH   8  17
ATOM     17  N   UNL     1       0.398 -20.112 -14.926  0.00  0.00    +0.000 NA
ATOM     18  H   UNL     1       1.009 -19.408 -14.525  0.00  0.00    +0.000 HD
ATOM     19  H   UNL     1       0.323 -20.957 -14.373  0.00  0.00    +0.000 HD
ENDBRANCH   8  17
TORSDOF 2
ENDMDL
MODEL 3
REMARK VINA RESULT:      -4.8      2.144      3.207
REMARK  Name = PhIP.pdbqt.pdb
REMARK  2 active torsions:
REMARK  status: ('A' for Active; 'I' for Inactive)
REMARK    1  A    between atoms: N_4  and  C_9
REMARK    2  A    between atoms: C_7  and  C_10
REMARK                            x       y       z     vdW  Elec       q    Type
REMARK                         _______ _______ _______ _____ _____    ______ ____
ROOT
ATOM      1  N   UNL     1      -2.226 -37.835  -3.786  0.00  0.00    +0.000 N 
ATOM      2  N   UNL     1      -2.414 -36.356  -1.928  0.00  0.00    +0.000 NA
ATOM      3  N   UNL     1      -3.072 -34.388  -3.187  0.00  0.00    +0.000 NA
ATOM      4  C   UNL     1      -2.646 -36.637  -4.279  0.00  0.00    +0.000 C 
ATOM      5  C   UNL     1      -2.738 -35.740  -3.036  0.00  0.00    +0.000 C 
ATOM      6  C   UNL     1      -2.966 -34.651  -5.651  0.00  0.00    +0.000 C 
ATOM      7  C   UNL     1      -2.705 -36.040  -5.431  0.00  0.00    +0.000 C 
ATOM      8  C   UNL     1      -2.080 -37.609  -2.415  0.00  0.00    +0.000 C 
ATOM      9  C   UNL     1      -1.346 -38.721  -4.529  0.00  0.00    +0.000 C 
ATOM     10  C   UNL     1      -3.106 -34.102  -4.330  0.00  0.00    +0.000 C 
ENDROOT
BRANCH   6  11
ATOM     11  C   UNL     1      -3.133 -33.966  -6.918  0.00  0.00    +0.000 A 
ATOM     12  C   UNL     1      -2.625 -34.517  -8.097  0.00  0.00    +0.000 A 
ATOM     13  C   UNL     1      -3.805 -32.744  -6.984  0.00  0.00    +0.000 A 
ATOM     14  C   UNL     1      -2.784 -33.862  -9.317  0.00  0.00    +0.000 A 
ATOM     15  C   UNL     1      -3.966 -32.084  -8.201  0.00  0.00    +0.000 A 
ATOM     16  C   UNL     1      -3.455 -32.644  -9.368  0.00  0.00    +0.000 A 
ENDBRANCH   6  11
BRANCH   8  17
ATOM     17  N   UNL     1      -1.530 -38.521  -1.498  0.00  0.00    +0.000 NA
ATOM     18  H   UNL     1      -2.004 -39.417  -1.484  0.00  0.00    +0.000 HD
ATOM     19  H   UNL     1      -0.522 -38.588  -1.567  0.00  0.00    +0.000 HD
ENDBRANCH   8  17
TORSDOF 2
ENDMDL
MODEL 4
REMARK VINA RESULT:      -4.7     10.436     12.050
REMARK  Name = PhIP.pdbqt.pdb
REMARK  2 active torsions:
REMARK  status: ('A' for Active; 'I' for Inactive)
REMARK    1  A    between atoms: N_4  and  C_9
REMARK    2  A    between atoms: C_7  and  C_10
REMARK                            x       y       z     vdW  Elec       q    Type
REMARK                         _______ _______ _______ _____ _____    ______ ____
ROOT
ATOM      1  N   UNL     1       4.203 -33.657   5.559  0.00  0.00    +0.000 N 
ATOM      2  N   UNL     1       2.939 -35.548   4.851  0.00  0.00    +0.000 NA
ATOM      3  N   UNL     1       2.636 -34.851   2.546  0.00  0.00    +0.000 NA
ATOM      4  C   UNL     1       3.955 -33.488   4.230  0.00  0.00    +0.000 C 
ATOM      5  C   UNL     1       3.138 -34.731   3.848  0.00  0.00    +0.000 C 
ATOM      6  C   UNL     1       3.419 -32.550   2.048  0.00  0.00    +0.000 C 
ATOM      7  C   UNL     1       3.978 -32.521   3.364  0.00  0.00    +0.000 C 
ATOM      8  C   UNL     1       3.566 -34.859   5.876  0.00  0.00    +0.000 C 
ATOM      9  C   UNL     1       4.275 -32.542   6.488  0.00  0.00    +0.000 C 
ATOM     10  C   UNL     1       2.822 -33.853   1.945  0.00  0.00    +0.000 C 
ENDROOT
BRANCH   6  11
ATOM     11  C   UNL     1       3.505 -31.530   1.021  0.00  0.00    +0.000 A 
ATOM     12  C   UNL     1       2.923 -30.275   1.214  0.00  0.00    +0.000 A 
ATOM     13  C   UNL     1       4.173 -31.783  -0.179  0.00  0.00    +0.000 A 
ATOM     14  C   UNL     1       3.004 -29.293   0.229  0.00  0.00    +0.000 A 
ATOM     15  C   UNL     1       4.257 -30.804  -1.168  0.00  0.00    +0.000 A 
ATOM     16  C   UNL     1       3.671 -29.558  -0.963  0.00  0.00    +0.000 A 
ENDBRANCH   6  11
BRANCH   8  17
ATOM     17  N   UNL     1       3.425 -35.383   7.172  0.00  0.00    +0.000 NA
ATOM     18  H   UNL     1       2.532 -35.837   7.331  0.00  0.00    +0.000 HD
ATOM     19  H   UNL     1       4.224 -35.931   7.464  0.00  0.00    +0.000 HD
ENDBRANCH   8  17
TORSDOF 2
ENDMDL
MODEL 5
REMARK VINA RESULT:      -4.7     17.579     18.862
REMARK  Name = PhIP.pdbqt.pdb
REMARK  2 active torsions:
REMARK  status: ('A' for Active; 'I' for Inactive)
REMARK    1  A    between atoms: N_4  and  C_9
REMARK    2  A    between atoms: C_7  and  C_10
REMARK                            x       y       z     vdW  Elec       q    Type
REMARK                         _______ _______ _______ _____ _____    ______ ____
ROOT
ATOM      1  N   UNL     1       0.377 -17.881 -14.156  0.00  0.00    +0.000 N 
ATOM      2  N   UNL     1       0.537 -20.079 -15.062  0.00  0.00    +0.000 NA
ATOM      3  N   UNL     1      -1.704 -20.177 -15.988  0.00  0.00    +0.000 NA
ATOM      4  C   UNL     1      -0.804 -18.133 -14.787  0.00  0.00    +0.000 C 
ATOM      5  C   UNL     1      -0.631 -19.556 -15.336  0.00  0.00    +0.000 C 
ATOM      6  C   UNL     1      -3.162 -18.265 -15.379  0.00  0.00    +0.000 C 
ATOM      7  C   UNL     1      -2.010 -17.649 -14.799  0.00  0.00    +0.000 C 
ATOM      8  C   UNL     1       1.111 -19.057 -14.323  0.00  0.00    +0.000 C 
ATOM      9  C   UNL     1       0.462 -17.070 -12.954  0.00  0.00    +0.000 C 
ATOM     10  C   UNL     1      -2.676 -19.515 -15.894  0.00  0.00    +0.000 C 
ENDROOT
BRANCH   6  11
ATOM     11  C   UNL     1      -4.501 -17.719 -15.495  0.00  0.00    +0.000 A 
ATOM     12  C   UNL     1      -4.732 -16.355 -15.302  0.00  0.00    +0.000 A 
ATOM     13  C   UNL     1      -5.583 -18.546 -15.803  0.00  0.00    +0.000 A 
ATOM     14  C   UNL     1      -6.017 -15.827 -15.413  0.00  0.00    +0.000 A 
ATOM     15  C   UNL     1      -6.870 -18.024 -15.915  0.00  0.00    +0.000 A 
ATOM     16  C   UNL     1      -7.086 -16.662 -15.719  0.00  0.00    +0.000 A 
ENDBRANCH   6  11
BRANCH   8  17
ATOM     17  N   UNL     1       2.351 -19.329 -13.720  0.00  0.00    +0.000 NA
ATOM     18  H   UNL     1       2.706 -18.561 -13.160  0.00  0.00    +0.000 HD
ATOM     19  H   UNL     1       2.373 -20.226 -13.252  0.00  0.00    +0.000 HD
ENDBRANCH   8  17
TORSDOF 2
ENDMDL
MODEL 6
REMARK VINA RESULT:      -4.6     18.756     20.326
REMARK  Name = PhIP.pdbqt.pdb
REMARK  2 active torsions:
REMARK  status: ('A' for Active; 'I' for Inactive)
REMARK    1  A    between atoms: N_4  and  C_9
REMARK    2  A    between atoms: C_7  and  C_10
REMARK                            x       y       z     vdW  Elec       q    Type
REMARK                         _______ _______ _______ _____ _____    ______ ____
ROOT
ATOM      1  N   UNL     1     -14.427 -20.362   0.597  0.00  0.00    +0.000 N 
ATOM      2  N   UNL     1     -16.245 -18.989  -0.098  0.00  0.00    +0.000 NA
ATOM      3  N   UNL     1     -15.008 -16.904  -0.218  0.00  0.00    +0.000 NA
ATOM      4  C   UNL     1     -13.926 -19.108   0.419  0.00  0.00    +0.000 C 
ATOM      5  C   UNL     1     -15.146 -18.284  -0.019  0.00  0.00    +0.000 C 
ATOM      6  C   UNL     1     -12.689 -17.023   0.655  0.00  0.00    +0.000 C 
ATOM      7  C   UNL     1     -12.867 -18.438   0.761  0.00  0.00    +0.000 C 
ATOM      8  C   UNL     1     -15.787 -20.231   0.309  0.00  0.00    +0.000 C 
ATOM      9  C   UNL     1     -13.928 -21.263   1.621  0.00  0.00    +0.000 C 
ATOM     10  C   UNL     1     -13.939 -16.547   0.130  0.00  0.00    +0.000 C 
ENDROOT
BRANCH   6  11
ATOM     11  C   UNL     1     -11.494 -16.252   0.938  0.00  0.00    +0.000 A 
ATOM     12  C   UNL     1     -10.329 -16.882   1.381  0.00  0.00    +0.000 A 
ATOM     13  C   UNL     1     -11.485 -14.866   0.770  0.00  0.00    +0.000 A 
ATOM     14  C   UNL     1      -9.179 -16.143   1.653  0.00  0.00    +0.000 A 
ATOM     15  C   UNL     1     -10.338 -14.122   1.040  0.00  0.00    +0.000 A 
ATOM     16  C   UNL     1      -9.184 -14.763   1.483  0.00  0.00    +0.000 A 
ENDBRANCH   6  11
BRANCH   8  17
ATOM     17  N   UNL     1     -16.753 -21.236   0.490  0.00  0.00    +0.000 NA
ATOM     18  H   UNL     1     -16.742 -21.646   1.418  0.00  0.00    +0.000 HD
ATOM     19  H   UNL     1     -17.673 -20.958   0.173  0.00  0.00    +0.000 HD
ENDBRANCH   8  17
TORSDOF 2
ENDMDL
MODEL 7
REMARK VINA RESULT:      -4.6      9.173     11.061
REMARK  Name = PhIP.pdbqt.pdb
REMARK  2 active torsions:
REMARK  status: ('A' for Active; 'I' for Inactive)
REMARK    1  A    between atoms: N_4  and  C_9
REMARK    2  A    between atoms: C_7  and  C_10
REMARK                            x       y       z     vdW  Elec       q    Type
REMARK                         _______ _______ _______ _____ _____    ______ ____
ROOT
ATOM      1  N   UNL     1       1.725 -30.370 -13.385  0.00  0.00    +0.000 N 
ATOM      2  N   UNL     1       2.232 -28.124 -13.995  0.00  0.00    +0.000 NA
ATOM      3  N   UNL     1       3.659 -27.621 -12.097  0.00  0.00    +0.000 NA
ATOM      4  C   UNL     1       2.584 -29.892 -12.442  0.00  0.00    +0.000 C 
ATOM      5  C   UNL     1       2.860 -28.451 -12.894  0.00  0.00    +0.000 C 
ATOM      6  C   UNL     1       3.714 -29.378 -10.347  0.00  0.00    +0.000 C 
ATOM      7  C   UNL     1       2.963 -30.205 -11.240  0.00  0.00    +0.000 C 
ATOM      8  C   UNL     1       1.531 -29.292 -14.251  0.00  0.00    +0.000 C 
ATOM      9  C   UNL     1       0.670 -31.318 -13.070  0.00  0.00    +0.000 C 
ATOM     10  C   UNL     1       3.905 -28.153 -11.074  0.00  0.00    +0.000 C 
ENDROOT
BRANCH   6  11
ATOM     11  C   UNL     1       4.234 -29.723  -9.038  0.00  0.00    +0.000 A 
ATOM     12  C   UNL     1       5.507 -29.303  -8.645  0.00  0.00    +0.000 A 
ATOM     13  C   UNL     1       3.472 -30.481  -8.147  0.00  0.00    +0.000 A 
ATOM     14  C   UNL     1       6.010 -29.634  -7.388  0.00  0.00    +0.000 A 
ATOM     15  C   UNL     1       3.970 -30.815  -6.888  0.00  0.00    +0.000 A 
ATOM     16  C   UNL     1       5.241 -30.390  -6.510  0.00  0.00    +0.000 A 
ENDBRANCH   6  11
BRANCH   8  17
ATOM     17  N   UNL     1       0.609 -29.259 -15.310  0.00  0.00    +0.000 NA
ATOM     18  H   UNL     1      -0.207 -28.687 -15.119  0.00  0.00    +0.000 HD
ATOM     19  H   UNL     1       1.044 -29.073 -16.205  0.00  0.00    +0.000 HD
ENDBRANCH   8  17
TORSDOF 2
ENDMDL
MODEL 8
REMARK VINA RESULT:      -4.6     18.030     19.606
REMARK  Name = PhIP.pdbqt.pdb
REMARK  2 active torsions:
REMARK  status: ('A' for Active; 'I' for Inactive)
REMARK    1  A    between atoms: N_4  and  C_9
REMARK    2  A    between atoms: C_7  and  C_10
REMARK                            x       y       z     vdW  Elec       q    Type
REMARK                         _______ _______ _______ _____ _____    ______ ____
ROOT
ATOM      1  N   UNL     1     -13.627 -21.720   1.740  0.00  0.00    +0.000 N 
ATOM      2  N   UNL     1     -15.685 -21.279   0.624  0.00  0.00    +0.000 NA
ATOM      3  N   UNL     1     -15.154 -19.020  -0.087  0.00  0.00    +0.000 NA
ATOM      4  C   UNL     1     -13.524 -20.471   1.205  0.00  0.00    +0.000 C 
ATOM      5  C   UNL     1     -14.878 -20.255   0.513  0.00  0.00    +0.000 C 
ATOM      6  C   UNL     1     -13.036 -18.114   0.833  0.00  0.00    +0.000 C 
ATOM      7  C   UNL     1     -12.775 -19.420   1.355  0.00  0.00    +0.000 C 
ATOM      8  C   UNL     1     -14.916 -22.134   1.396  0.00  0.00    +0.000 C 
ATOM      9  C   UNL     1     -13.000 -22.084   2.998  0.00  0.00    +0.000 C 
ATOM     10  C   UNL     1     -14.299 -18.247   0.161  0.00  0.00    +0.000 C 
ENDROOT
BRANCH   6  11
ATOM     11  C   UNL     1     -12.184 -16.943   0.898  0.00  0.00    +0.000 A 
ATOM     12  C   UNL     1     -12.638 -15.706   0.436  0.00  0.00    +0.000 A 
ATOM     13  C   UNL     1     -10.893 -17.030   1.425  0.00  0.00    +0.000 A 
ATOM     14  C   UNL     1     -11.820 -14.579   0.497  0.00  0.00    +0.000 A 
ATOM     15  C   UNL     1     -10.072 -15.906   1.488  0.00  0.00    +0.000 A 
ATOM     16  C   UNL     1     -10.537 -14.679   1.023  0.00  0.00    +0.000 A 
ENDBRANCH   6  11
BRANCH   8  17
ATOM     17  N   UNL     1     -15.535 -23.312   1.848  0.00  0.00    +0.000 NA
ATOM     18  H   UNL     1     -16.545 -23.302   1.748  0.00  0.00    +0.000 HD
ATOM     19  H   UNL     1     -15.093 -24.150   1.493  0.00  0.00    +0.000 HD
ENDBRANCH   8  17
TORSDOF 2
ENDMDL
MODEL 9
REMARK VINA RESULT:      -4.6     29.268     30.791
REMARK  Name = PhIP.pdbqt.pdb
REMARK  2 active torsions:
REMARK  status: ('A' for Active; 'I' for Inactive)
REMARK    1  A    between atoms: N_4  and  C_9
REMARK    2  A    between atoms: C_7  and  C_10
REMARK                            x       y       z     vdW  Elec       q    Type
REMARK                         _______ _______ _______ _____ _____    ______ ____
ROOT
ATOM      1  N   UNL     1     -16.513  -3.686  -5.463  0.00  0.00    +0.000 N 
ATOM      2  N   UNL     1     -17.160  -4.999  -3.583  0.00  0.00    +0.000 NA
ATOM      3  N   UNL     1     -15.013  -6.071  -3.222  0.00  0.00    +0.000 NA
ATOM      4  C   UNL     1     -15.402  -4.361  -5.053  0.00  0.00    +0.000 C 
ATOM      5  C   UNL     1     -15.893  -5.182  -3.853  0.00  0.00    +0.000 C 
ATOM      6  C   UNL     1     -13.324  -5.627  -4.982  0.00  0.00    +0.000 C 
ATOM      7  C   UNL     1     -14.238  -4.675  -5.535  0.00  0.00    +0.000 C 
ATOM      8  C   UNL     1     -17.515  -4.115  -4.590  0.00  0.00    +0.000 C 
ATOM      9  C   UNL     1     -16.772  -3.383  -6.860  0.00  0.00    +0.000 C 
ATOM     10  C   UNL     1     -14.006  -6.148  -3.831  0.00  0.00    +0.000 C 
ENDROOT
BRANCH   6  11
ATOM     11  C   UNL     1     -11.981  -5.938  -5.434  0.00  0.00    +0.000 A 
ATOM     12  C   UNL     1     -10.875  -5.300  -4.869  0.00  0.00    +0.000 A 
ATOM     13  C   UNL     1     -11.770  -6.881  -6.442  0.00  0.00    +0.000 A 
ATOM     14  C   UNL     1      -9.583  -5.597  -5.301  0.00  0.00    +0.000 A 
ATOM     15  C   UNL     1     -10.481  -7.182  -6.878  0.00  0.00    +0.000 A 
ATOM     16  C   UNL     1      -9.387  -6.538  -6.306  0.00  0.00    +0.000 A 
ENDBRANCH   6  11
BRANCH   8  17
ATOM     17  N   UNL     1     -18.879  -3.798  -4.705  0.00  0.00    +0.000 NA
ATOM     18  H   UNL     1     -19.142  -3.471  -5.628  0.00  0.00    +0.000 HD
ATOM     19  H   UNL     1     -19.483  -4.521  -4.335  0.00  0.00    +0.000 HD
ENDBRANCH   8  17
TORSDOF 2
ENDMDL
