MODEL 1
REMARK VINA RESULT:      -5.7      0.000      0.000
REMARK  Name = Piroxicam.pdbqt.pdb
REMARK  3 active torsions:
REMARK  status: ('A' for Active; 'I' for Inactive)
REMARK    1  A    between atoms: C_7  and  C_14
REMARK    2  A    between atoms: C_8  and  O_24
REMARK    3  A    between atoms: N_16  and  C_18
REMARK                            x       y       z     vdW  Elec       q    Type
REMARK                         _______ _______ _______ _____ _____    ______ ____
ROOT
ATOM      1  S   UNL     1      -5.530 -35.225  -8.841  0.00  0.00    +0.000 S 
ATOM      2  O   UNL     1      -6.190 -34.290  -9.734  0.00  0.00    +0.000 OA
ATOM      3  O   UNL     1      -5.762 -36.651  -8.960  0.00  0.00    +0.000 OA
ATOM      4  N   UNL     1      -3.841 -34.888  -8.848  0.00  0.00    +0.000 N 
ATOM      5  C   UNL     1      -5.959 -34.740  -7.215  0.00  0.00    +0.000 A 
ATOM      6  C   UNL     1      -5.251 -33.680  -6.651  0.00  0.00    +0.000 A 
ATOM      7  C   UNL     1      -3.522 -33.551  -8.434  0.00  0.00    +0.000 C 
ATOM      8  C   UNL     1      -4.190 -32.983  -7.404  0.00  0.00    +0.000 C 
ATOM      9  C   UNL     1      -6.953 -35.429  -6.529  0.00  0.00    +0.000 A 
ATOM     10  C   UNL     1      -2.922 -35.883  -8.269  0.00  0.00    +0.000 C 
ATOM     11  C   UNL     1      -5.600 -33.287  -5.358  0.00  0.00    +0.000 A 
ATOM     12  C   UNL     1      -7.273 -35.028  -5.238  0.00  0.00    +0.000 A 
ATOM     13  C   UNL     1      -6.603 -33.955  -4.654  0.00  0.00    +0.000 A 
ENDROOT
BRANCH   7  14
ATOM     14  C   UNL     1      -2.453 -32.806  -9.177  0.00  0.00    +0.000 C 
ATOM     15  O   UNL     1      -2.390 -31.582  -9.073  0.00  0.00    +0.000 OA
ATOM     16  N   UNL     1      -1.620 -33.587  -9.936  0.00  0.00    +0.000 N 
ATOM     17  H   UNL     1      -1.701 -34.597  -9.913  0.00  0.00    +0.000 HD
BRANCH  16  18
ATOM     18  C   UNL     1      -0.570 -33.143 -10.740  0.00  0.00    +0.000 A 
ATOM     19  N   UNL     1      -0.950 -32.698 -11.954  0.00  0.00    +0.000 NA
ATOM     20  C   UNL     1       0.029 -32.251 -12.774  0.00  0.00    +0.000 A 
ATOM     21  C   UNL     1       1.372 -32.224 -12.443  0.00  0.00    +0.000 A 
ATOM     22  C   UNL     1       1.729 -32.687 -11.184  0.00  0.00    +0.000 A 
ATOM     23  C   UNL     1       0.751 -33.154 -10.315  0.00  0.00    +0.000 A 
ENDBRANCH  16  18
ENDBRANCH   7  14
BRANCH   8  24
ATOM     24  O   UNL     1      -3.943 -31.702  -6.940  0.00  0.00    +0.000 OA
ATOM     25  H   UNL     1      -3.652 -31.130  -7.687  0.00  0.00    +0.000 HD
ENDBRANCH   8  24
TORSDOF 3
ENDMDL
MODEL 2
REMARK VINA RESULT:      -5.5      8.720      9.897
REMARK  Name = Piroxicam.pdbqt.pdb
REMARK  3 active torsions:
REMARK  status: ('A' for Active; 'I' for Inactive)
REMARK    1  A    between atoms: C_7  and  C_14
REMARK    2  A    between atoms: C_8  and  O_24
REMARK    3  A    between atoms: N_16  and  C_18
REMARK                            x       y       z     vdW  Elec       q    Type
REMARK                         _______ _______ _______ _____ _____    ______ ____
ROOT
ATOM      1  S   UNL     1      -2.858 -27.935 -18.518  0.00  0.00    +0.000 S 
ATOM      2  O   UNL     1      -2.130 -26.687 -18.651  0.00  0.00    +0.000 OA
ATOM      3  O   UNL     1      -3.383 -28.615 -19.686  0.00  0.00    +0.000 OA
ATOM      4  N   UNL     1      -1.917 -29.019 -17.565  0.00  0.00    +0.000 N 
ATOM      5  C   UNL     1      -4.194 -27.613 -17.433  0.00  0.00    +0.000 A 
ATOM      6  C   UNL     1      -3.925 -27.607 -16.066  0.00  0.00    +0.000 A 
ATOM      7  C   UNL     1      -1.617 -28.516 -16.254  0.00  0.00    +0.000 C 
ATOM      8  C   UNL     1      -2.562 -27.848 -15.553  0.00  0.00    +0.000 C 
ATOM      9  C   UNL     1      -5.468 -27.407 -17.950  0.00  0.00    +0.000 A 
ATOM     10  C   UNL     1      -2.290 -30.444 -17.542  0.00  0.00    +0.000 C 
ATOM     11  C   UNL     1      -4.988 -27.340 -15.201  0.00  0.00    +0.000 A 
ATOM     12  C   UNL     1      -6.512 -27.156 -17.068  0.00  0.00    +0.000 A 
ATOM     13  C   UNL     1      -6.273 -27.117 -15.696  0.00  0.00    +0.000 A 
ENDROOT
BRANCH   7  14
ATOM     14  C   UNL     1      -0.242 -28.735 -15.699  0.00  0.00    +0.000 C 
ATOM     15  O   UNL     1       0.735 -28.563 -16.425  0.00  0.00    +0.000 OA
ATOM     16  N   UNL     1      -0.202 -29.125 -14.385  0.00  0.00    +0.000 N 
ATOM     17  H   UNL     1      -1.053 -29.179 -13.838  0.00  0.00    +0.000 HD
BRANCH  16  18
ATOM     18  C   UNL     1       0.942 -29.419 -13.641  0.00  0.00    +0.000 A 
ATOM     19  N   UNL     1       1.359 -28.415 -12.844  0.00  0.00    +0.000 NA
ATOM     20  C   UNL     1       2.462 -28.647 -12.096  0.00  0.00    +0.000 A 
ATOM     21  C   UNL     1       3.172 -29.835 -12.101  0.00  0.00    +0.000 A 
ATOM     22  C   UNL     1       2.715 -30.849 -12.931  0.00  0.00    +0.000 A 
ATOM     23  C   UNL     1       1.585 -30.647 -13.714  0.00  0.00    +0.000 A 
ENDBRANCH  16  18
ENDBRANCH   7  14
BRANCH   8  24
ATOM     24  O   UNL     1      -2.357 -27.334 -14.283  0.00  0.00    +0.000 OA
ATOM     25  H   UNL     1      -1.610 -27.808 -13.851  0.00  0.00    +0.000 HD
ENDBRANCH   8  24
TORSDOF 3
ENDMDL
MODEL 3
REMARK VINA RESULT:      -5.4     17.225     19.423
REMARK  Name = Piroxicam.pdbqt.pdb
REMARK  3 active torsions:
REMARK  status: ('A' for Active; 'I' for Inactive)
REMARK    1  A    between atoms: C_7  and  C_14
REMARK    2  A    between atoms: C_8  and  O_24
REMARK    3  A    between atoms: N_16  and  C_18
REMARK                            x       y       z     vdW  Elec       q    Type
REMARK                         _______ _______ _______ _____ _____    ______ ____
ROOT
ATOM      1  S   UNL     1      -4.160 -18.829 -16.415  0.00  0.00    +0.000 S 
ATOM      2  O   UNL     1      -5.045 -19.449 -15.447  0.00  0.00    +0.000 OA
ATOM      3  O   UNL     1      -3.727 -19.555 -17.593  0.00  0.00    +0.000 OA
ATOM      4  N   UNL     1      -4.819 -17.301 -16.860  0.00  0.00    +0.000 N 
ATOM      5  C   UNL     1      -2.733 -18.330 -15.531  0.00  0.00    +0.000 A 
ATOM      6  C   UNL     1      -2.806 -17.138 -14.812  0.00  0.00    +0.000 A 
ATOM      7  C   UNL     1      -4.990 -16.406 -15.751  0.00  0.00    +0.000 C 
ATOM      8  C   UNL     1      -4.043 -16.335 -14.786  0.00  0.00    +0.000 C 
ATOM      9  C   UNL     1      -1.580 -19.103 -15.591  0.00  0.00    +0.000 A 
ATOM     10  C   UNL     1      -4.277 -16.618 -18.047  0.00  0.00    +0.000 C 
ATOM     11  C   UNL     1      -1.671 -16.746 -14.100  0.00  0.00    +0.000 A 
ATOM     12  C   UNL     1      -0.459 -18.685 -14.884  0.00  0.00    +0.000 A 
ATOM     13  C   UNL     1      -0.505 -17.511 -14.134  0.00  0.00    +0.000 A 
ENDROOT
BRANCH   7  14
ATOM     14  C   UNL     1      -6.237 -15.576 -15.683  0.00  0.00    +0.000 C 
ATOM     15  O   UNL     1      -6.143 -14.350 -15.638  0.00  0.00    +0.000 OA
ATOM     16  N   UNL     1      -7.408 -16.288 -15.671  0.00  0.00    +0.000 N 
ATOM     17  H   UNL     1      -7.399 -17.296 -15.778  0.00  0.00    +0.000 HD
BRANCH  16  18
ATOM     18  C   UNL     1      -8.698 -15.763 -15.585  0.00  0.00    +0.000 A 
ATOM     19  N   UNL     1      -9.592 -16.348 -16.407  0.00  0.00    +0.000 NA
ATOM     20  C   UNL     1     -10.861 -15.880 -16.362  0.00  0.00    +0.000 A 
ATOM     21  C   UNL     1     -11.285 -14.857 -15.533  0.00  0.00    +0.000 A 
ATOM     22  C   UNL     1     -10.341 -14.278 -14.697  0.00  0.00    +0.000 A 
ATOM     23  C   UNL     1      -9.028 -14.732 -14.717  0.00  0.00    +0.000 A 
ENDBRANCH  16  18
ENDBRANCH   7  14
BRANCH   8  24
ATOM     24  O   UNL     1      -4.128 -15.497 -13.687  0.00  0.00    +0.000 OA
ATOM     25  H   UNL     1      -5.034 -15.117 -13.629  0.00  0.00    +0.000 HD
ENDBRANCH   8  24
TORSDOF 3
ENDMDL
MODEL 4
REMARK VINA RESULT:      -5.3     18.268     20.232
REMARK  Name = Piroxicam.pdbqt.pdb
REMARK  3 active torsions:
REMARK  status: ('A' for Active; 'I' for Inactive)
REMARK    1  A    between atoms: C_7  and  C_14
REMARK    2  A    between atoms: C_8  and  O_24
REMARK    3  A    between atoms: N_16  and  C_18
REMARK                            x       y       z     vdW  Elec       q    Type
REMARK                         _______ _______ _______ _____ _____    ______ ____
ROOT
ATOM      1  S   UNL     1       0.073 -13.866  -2.602  0.00  0.00    +0.000 S 
ATOM      2  O   UNL     1      -0.916 -12.988  -2.005  0.00  0.00    +0.000 OA
ATOM      3  O   UNL     1       1.481 -13.714  -2.293  0.00  0.00    +0.000 OA
ATOM      4  N   UNL     1      -0.424 -15.497  -2.356  0.00  0.00    +0.000 N 
ATOM      5  C   UNL     1      -0.120 -13.719  -4.336  0.00  0.00    +0.000 A 
ATOM      6  C   UNL     1      -1.148 -14.446  -4.934  0.00  0.00    +0.000 A 
ATOM      7  C   UNL     1      -1.709 -15.796  -2.922  0.00  0.00    +0.000 C 
ATOM      8  C   UNL     1      -2.049 -15.296  -4.133  0.00  0.00    +0.000 C 
ATOM      9  C   UNL     1       0.757 -12.921  -5.062  0.00  0.00    +0.000 A 
ATOM     10  C   UNL     1       0.552 -16.575  -2.593  0.00  0.00    +0.000 C 
ATOM     11  C   UNL     1      -1.307 -14.321  -6.315  0.00  0.00    +0.000 A 
ATOM     12  C   UNL     1       0.586 -12.823  -6.438  0.00  0.00    +0.000 A 
ATOM     13  C   UNL     1      -0.447 -13.516  -7.064  0.00  0.00    +0.000 A 
ENDROOT
BRANCH   7  14
ATOM     14  C   UNL     1      -2.657 -16.652  -2.137  0.00  0.00    +0.000 C 
ATOM     15  O   UNL     1      -3.825 -16.755  -2.508  0.00  0.00    +0.000 OA
ATOM     16  N   UNL     1      -2.114 -17.259  -1.033  0.00  0.00    +0.000 N 
ATOM     17  H   UNL     1      -1.124 -17.174  -0.835  0.00  0.00    +0.000 HD
BRANCH  16  18
ATOM     18  C   UNL     1      -2.783 -18.079  -0.123  0.00  0.00    +0.000 A 
ATOM     19  N   UNL     1      -2.185 -19.268   0.095  0.00  0.00    +0.000 NA
ATOM     20  C   UNL     1      -2.790 -20.101   0.973  0.00  0.00    +0.000 A 
ATOM     21  C   UNL     1      -3.961 -19.808   1.647  0.00  0.00    +0.000 A 
ATOM     22  C   UNL     1      -4.549 -18.576   1.402  0.00  0.00    +0.000 A 
ATOM     23  C   UNL     1      -3.958 -17.693   0.506  0.00  0.00    +0.000 A 
ENDBRANCH  16  18
ENDBRANCH   7  14
BRANCH   8  24
ATOM     24  O   UNL     1      -3.264 -15.539  -4.750  0.00  0.00    +0.000 OA
ATOM     25  H   UNL     1      -3.240 -15.199  -5.674  0.00  0.00    +0.000 HD
ENDBRANCH   8  24
TORSDOF 3
ENDMDL
MODEL 5
REMARK VINA RESULT:      -5.3     18.373     19.097
REMARK  Name = Piroxicam.pdbqt.pdb
REMARK  3 active torsions:
REMARK  status: ('A' for Active; 'I' for Inactive)
REMARK    1  A    between atoms: C_7  and  C_14
REMARK    2  A    between atoms: C_8  and  O_24
REMARK    3  A    between atoms: N_16  and  C_18
REMARK                            x       y       z     vdW  Elec       q    Type
REMARK                         _______ _______ _______ _____ _____    ______ ____
ROOT
ATOM      1  S   UNL     1      -0.771 -17.422   0.079  0.00  0.00    +0.000 S 
ATOM      2  O   UNL     1      -0.367 -18.287  -1.014  0.00  0.00    +0.000 OA
ATOM      3  O   UNL     1      -0.012 -17.384   1.313  0.00  0.00    +0.000 OA
ATOM      4  N   UNL     1      -0.994 -15.829  -0.538  0.00  0.00    +0.000 N 
ATOM      5  C   UNL     1      -2.421 -17.859   0.471  0.00  0.00    +0.000 A 
ATOM      6  C   UNL     1      -3.433 -17.340  -0.334  0.00  0.00    +0.000 A 
ATOM      7  C   UNL     1      -1.980 -15.750  -1.579  0.00  0.00    +0.000 C 
ATOM      8  C   UNL     1      -3.124 -16.466  -1.483  0.00  0.00    +0.000 C 
ATOM      9  C   UNL     1      -2.676 -18.671   1.570  0.00  0.00    +0.000 A 
ATOM     10  C   UNL     1      -1.102 -14.712   0.416  0.00  0.00    +0.000 C 
ATOM     11  C   UNL     1      -4.747 -17.697  -0.028  0.00  0.00    +0.000 A 
ATOM     12  C   UNL     1      -3.994 -19.002   1.863  0.00  0.00    +0.000 A 
ATOM     13  C   UNL     1      -5.028 -18.521   1.063  0.00  0.00    +0.000 A 
ENDROOT
BRANCH   7  14
ATOM     14  C   UNL     1      -1.702 -14.878  -2.767  0.00  0.00    +0.000 C 
ATOM     15  O   UNL     1      -2.181 -13.746  -2.808  0.00  0.00    +0.000 OA
ATOM     16  N   UNL     1      -0.915 -15.449  -3.734  0.00  0.00    +0.000 N 
ATOM     17  H   UNL     1      -0.506 -16.365  -3.591  0.00  0.00    +0.000 HD
BRANCH  16  18
ATOM     18  C   UNL     1      -0.533 -14.866  -4.943  0.00  0.00    +0.000 A 
ATOM     19  N   UNL     1      -1.553 -14.637  -5.796  0.00  0.00    +0.000 NA
ATOM     20  C   UNL     1      -1.239 -14.069  -6.983  0.00  0.00    +0.000 A 
ATOM     21  C   UNL     1       0.042 -13.714  -7.364  0.00  0.00    +0.000 A 
ATOM     22  C   UNL     1       1.068 -13.961  -6.462  0.00  0.00    +0.000 A 
ATOM     23  C   UNL     1       0.785 -14.544  -5.233  0.00  0.00    +0.000 A 
ENDBRANCH  16  18
ENDBRANCH   7  14
BRANCH   8  24
ATOM     24  O   UNL     1      -4.126 -16.445  -2.438  0.00  0.00    +0.000 OA
ATOM     25  H   UNL     1      -3.762 -16.116  -3.292  0.00  0.00    +0.000 HD
ENDBRANCH   8  24
TORSDOF 3
ENDMDL
MODEL 6
REMARK VINA RESULT:      -5.2     20.516     21.528
REMARK  Name = Piroxicam.pdbqt.pdb
REMARK  3 active torsions:
REMARK  status: ('A' for Active; 'I' for Inactive)
REMARK    1  A    between atoms: C_7  and  C_14
REMARK    2  A    between atoms: C_8  and  O_24
REMARK    3  A    between atoms: N_16  and  C_18
REMARK                            x       y       z     vdW  Elec       q    Type
REMARK                         _______ _______ _______ _____ _____    ______ ____
ROOT
ATOM      1  S   UNL     1     -16.445 -19.499  -2.508  0.00  0.00    +0.000 S 
ATOM      2  O   UNL     1     -15.410 -20.338  -3.084  0.00  0.00    +0.000 OA
ATOM      3  O   UNL     1     -17.805 -19.985  -2.381  0.00  0.00    +0.000 OA
ATOM      4  N   UNL     1     -15.880 -18.892  -0.999  0.00  0.00    +0.000 N 
ATOM      5  C   UNL     1     -16.480 -18.033  -3.464  0.00  0.00    +0.000 A 
ATOM      6  C   UNL     1     -15.520 -17.062  -3.188  0.00  0.00    +0.000 A 
ATOM      7  C   UNL     1     -14.671 -18.126  -1.105  0.00  0.00    +0.000 C 
ATOM      8  C   UNL     1     -14.502 -17.269  -2.139  0.00  0.00    +0.000 C 
ATOM      9  C   UNL     1     -17.463 -17.864  -4.432  0.00  0.00    +0.000 A 
ATOM     10  C   UNL     1     -16.852 -18.273  -0.080  0.00  0.00    +0.000 C 
ATOM     11  C   UNL     1     -15.542 -15.896  -3.956  0.00  0.00    +0.000 A 
ATOM     12  C   UNL     1     -17.473 -16.690  -5.175  0.00  0.00    +0.000 A 
ATOM     13  C   UNL     1     -16.510 -15.709  -4.943  0.00  0.00    +0.000 A 
ENDROOT
BRANCH   7  14
ATOM     14  C   UNL     1     -13.609 -18.311  -0.064  0.00  0.00    +0.000 C 
ATOM     15  O   UNL     1     -13.248 -19.449   0.232  0.00  0.00    +0.000 OA
ATOM     16  N   UNL     1     -13.126 -17.152   0.486  0.00  0.00    +0.000 N 
ATOM     17  H   UNL     1     -13.432 -16.250   0.137  0.00  0.00    +0.000 HD
BRANCH  16  18
ATOM     18  C   UNL     1     -12.161 -17.047   1.488  0.00  0.00    +0.000 A 
ATOM     19  N   UNL     1     -12.661 -17.031   2.741  0.00  0.00    +0.000 NA
ATOM     20  C   UNL     1     -11.767 -16.935   3.752  0.00  0.00    +0.000 A 
ATOM     21  C   UNL     1     -10.397 -16.857   3.579  0.00  0.00    +0.000 A 
ATOM     22  C   UNL     1      -9.915 -16.880   2.278  0.00  0.00    +0.000 A 
ATOM     23  C   UNL     1     -10.803 -16.976   1.212  0.00  0.00    +0.000 A 
ENDBRANCH  16  18
ENDBRANCH   7  14
BRANCH   8  24
ATOM     24  O   UNL     1     -13.370 -16.491  -2.315  0.00  0.00    +0.000 OA
ATOM     25  H   UNL     1     -12.668 -17.023  -2.755  0.00  0.00    +0.000 HD
ENDBRANCH   8  24
TORSDOF 3
ENDMDL
MODEL 7
REMARK VINA RESULT:      -5.1     12.451     13.478
REMARK  Name = Piroxicam.pdbqt.pdb
REMARK  3 active torsions:
REMARK  status: ('A' for Active; 'I' for Inactive)
REMARK    1  A    between atoms: C_7  and  C_14
REMARK    2  A    between atoms: C_8  and  O_24
REMARK    3  A    between atoms: N_16  and  C_18
REMARK                            x       y       z     vdW  Elec       q    Type
REMARK                         _______ _______ _______ _____ _____    ______ ____
ROOT
ATOM      1  S   UNL     1       5.442 -31.416   3.646  0.00  0.00    +0.000 S 
ATOM      2  O   UNL     1       6.700 -31.897   3.107  0.00  0.00    +0.000 OA
ATOM      3  O   UNL     1       5.420 -30.436   4.714  0.00  0.00    +0.000 OA
ATOM      4  N   UNL     1       4.447 -30.901   2.338  0.00  0.00    +0.000 N 
ATOM      5  C   UNL     1       4.566 -32.831   4.192  0.00  0.00    +0.000 A 
ATOM      6  C   UNL     1       3.886 -33.577   3.231  0.00  0.00    +0.000 A 
ATOM      7  C   UNL     1       4.174 -31.937   1.383  0.00  0.00    +0.000 C 
ATOM      8  C   UNL     1       3.916 -33.197   1.805  0.00  0.00    +0.000 C 
ATOM      9  C   UNL     1       4.546 -33.150   5.545  0.00  0.00    +0.000 A 
ATOM     10  C   UNL     1       3.253 -30.092   2.636  0.00  0.00    +0.000 C 
ATOM     11  C   UNL     1       3.196 -34.710   3.664  0.00  0.00    +0.000 A 
ATOM     12  C   UNL     1       3.841 -34.276   5.954  0.00  0.00    +0.000 A 
ATOM     13  C   UNL     1       3.172 -35.059   5.016  0.00  0.00    +0.000 A 
ENDROOT
BRANCH   7  14
ATOM     14  C   UNL     1       4.201 -31.594  -0.077  0.00  0.00    +0.000 C 
ATOM     15  O   UNL     1       3.547 -32.272  -0.867  0.00  0.00    +0.000 OA
ATOM     16  N   UNL     1       4.986 -30.519  -0.406  0.00  0.00    +0.000 N 
ATOM     17  H   UNL     1       5.440 -29.973   0.317  0.00  0.00    +0.000 HD
BRANCH  16  18
ATOM     18  C   UNL     1       5.205 -30.012  -1.688  0.00  0.00    +0.000 A 
ATOM     19  N   UNL     1       6.165 -30.655  -2.382  0.00  0.00    +0.000 NA
ATOM     20  C   UNL     1       6.416 -30.208  -3.634  0.00  0.00    +0.000 A 
ATOM     21  C   UNL     1       5.754 -29.150  -4.232  0.00  0.00    +0.000 A 
ATOM     22  C   UNL     1       4.769 -28.512  -3.491  0.00  0.00    +0.000 A 
ATOM     23  C   UNL     1       4.484 -28.944  -2.201  0.00  0.00    +0.000 A 
ENDBRANCH  16  18
ENDBRANCH   7  14
BRANCH   8  24
ATOM     24  O   UNL     1       3.640 -34.252   0.952  0.00  0.00    +0.000 OA
ATOM     25  H   UNL     1       3.358 -35.036   1.476  0.00  0.00    +0.000 HD
ENDBRANCH   8  24
TORSDOF 3
ENDMDL
MODEL 8
REMARK VINA RESULT:      -5.1      8.858     11.461
REMARK  Name = Piroxicam.pdbqt.pdb
REMARK  3 active torsions:
REMARK  status: ('A' for Active; 'I' for Inactive)
REMARK    1  A    between atoms: C_7  and  C_14
REMARK    2  A    between atoms: C_8  and  O_24
REMARK    3  A    between atoms: N_16  and  C_18
REMARK                            x       y       z     vdW  Elec       q    Type
REMARK                         _______ _______ _______ _____ _____    ______ ____
ROOT
ATOM      1  S   UNL     1      -1.570 -29.881 -18.192  0.00  0.00    +0.000 S 
ATOM      2  O   UNL     1      -2.055 -31.022 -17.438  0.00  0.00    +0.000 OA
ATOM      3  O   UNL     1      -1.486 -29.931 -19.639  0.00  0.00    +0.000 OA
ATOM      4  N   UNL     1      -2.441 -28.482 -17.689  0.00  0.00    +0.000 N 
ATOM      5  C   UNL     1       0.026 -29.520 -17.569  0.00  0.00    +0.000 A 
ATOM      6  C   UNL     1       0.105 -28.790 -16.385  0.00  0.00    +0.000 A 
ATOM      7  C   UNL     1      -2.310 -28.200 -16.288  0.00  0.00    +0.000 C 
ATOM      8  C   UNL     1      -1.112 -28.350 -15.675  0.00  0.00    +0.000 C 
ATOM      9  C   UNL     1       1.151 -29.936 -18.272  0.00  0.00    +0.000 A 
ATOM     10  C   UNL     1      -2.354 -27.264 -18.513  0.00  0.00    +0.000 C 
ATOM     11  C   UNL     1       1.377 -28.510 -15.883  0.00  0.00    +0.000 A 
ATOM     12  C   UNL     1       2.407 -29.635 -17.759  0.00  0.00    +0.000 A 
ATOM     13  C   UNL     1       2.522 -28.928 -16.564  0.00  0.00    +0.000 A 
ENDROOT
BRANCH   7  14
ATOM     14  C   UNL     1      -3.524 -27.756 -15.528  0.00  0.00    +0.000 C 
ATOM     15  O   UNL     1      -3.386 -27.061 -14.524  0.00  0.00    +0.000 OA
ATOM     16  N   UNL     1      -4.720 -28.189 -16.042  0.00  0.00    +0.000 N 
ATOM     17  H   UNL     1      -4.749 -28.704 -16.914  0.00  0.00    +0.000 HD
BRANCH  16  18
ATOM     18  C   UNL     1      -5.988 -27.942 -15.513  0.00  0.00    +0.000 A 
ATOM     19  N   UNL     1      -6.641 -26.915 -16.095  0.00  0.00    +0.000 NA
ATOM     20  C   UNL     1      -7.878 -26.634 -15.624  0.00  0.00    +0.000 A 
ATOM     21  C   UNL     1      -8.499 -27.328 -14.602  0.00  0.00    +0.000 A 
ATOM     22  C   UNL     1      -7.801 -28.380 -14.027  0.00  0.00    +0.000 A 
ATOM     23  C   UNL     1      -6.528 -28.698 -14.483  0.00  0.00    +0.000 A 
ENDBRANCH  16  18
ENDBRANCH   7  14
BRANCH   8  24
ATOM     24  O   UNL     1      -0.899 -28.096 -14.331  0.00  0.00    +0.000 OA
ATOM     25  H   UNL     1      -1.678 -28.398 -13.810  0.00  0.00    +0.000 HD
ENDBRANCH   8  24
TORSDOF 3
ENDMDL
MODEL 9
REMARK VINA RESULT:      -5.1     17.763     20.264
REMARK  Name = Piroxicam.pdbqt.pdb
REMARK  3 active torsions:
REMARK  status: ('A' for Active; 'I' for Inactive)
REMARK    1  A    between atoms: C_7  and  C_14
REMARK    2  A    between atoms: C_8  and  O_24
REMARK    3  A    between atoms: N_16  and  C_18
REMARK                            x       y       z     vdW  Elec       q    Type
REMARK                         _______ _______ _______ _____ _____    ______ ____
ROOT
ATOM      1  S   UNL     1     -15.922 -19.155  -0.450  0.00  0.00    +0.000 S 
ATOM      2  O   UNL     1     -15.593 -19.804  -1.705  0.00  0.00    +0.000 OA
ATOM      3  O   UNL     1     -17.080 -18.289  -0.345  0.00  0.00    +0.000 OA
ATOM      4  N   UNL     1     -15.948 -20.347   0.793  0.00  0.00    +0.000 N 
ATOM      5  C   UNL     1     -14.510 -18.227   0.010  0.00  0.00    +0.000 A 
ATOM      6  C   UNL     1     -13.462 -18.911   0.622  0.00  0.00    +0.000 A 
ATOM      7  C   UNL     1     -14.702 -21.043   0.946  0.00  0.00    +0.000 C 
ATOM      8  C   UNL     1     -13.533 -20.366   0.860  0.00  0.00    +0.000 C 
ATOM      9  C   UNL     1     -14.483 -16.855  -0.214  0.00  0.00    +0.000 A 
ATOM     10  C   UNL     1     -16.554 -20.000   2.091  0.00  0.00    +0.000 C 
ATOM     11  C   UNL     1     -12.332 -18.174   0.980  0.00  0.00    +0.000 A 
ATOM     12  C   UNL     1     -13.353 -16.140   0.163  0.00  0.00    +0.000 A 
ATOM     13  C   UNL     1     -12.276 -16.798   0.754  0.00  0.00    +0.000 A 
ENDROOT
BRANCH   7  14
ATOM     14  C   UNL     1     -14.731 -22.524   1.182  0.00  0.00    +0.000 C 
ATOM     15  O   UNL     1     -15.454 -23.231   0.484  0.00  0.00    +0.000 OA
ATOM     16  N   UNL     1     -13.922 -22.965   2.198  0.00  0.00    +0.000 N 
ATOM     17  H   UNL     1     -13.307 -22.322   2.682  0.00  0.00    +0.000 HD
BRANCH  16  18
ATOM     18  C   UNL     1     -13.786 -24.282   2.638  0.00  0.00    +0.000 A 
ATOM     19  N   UNL     1     -12.516 -24.651   2.902  0.00  0.00    +0.000 NA
ATOM     20  C   UNL     1     -12.327 -25.918   3.336  0.00  0.00    +0.000 A 
ATOM     21  C   UNL     1     -13.343 -26.838   3.523  0.00  0.00    +0.000 A 
ATOM     22  C   UNL     1     -14.638 -26.427   3.245  0.00  0.00    +0.000 A 
ATOM     23  C   UNL     1     -14.872 -25.132   2.796  0.00  0.00    +0.000 A 
ENDBRANCH  16  18
ENDBRANCH   7  14
BRANCH   8  24
ATOM     24  O   UNL     1     -12.290 -20.959   0.998  0.00  0.00    +0.000 OA
ATOM     25  H   UNL     1     -12.054 -21.015   1.952  0.00  0.00    +0.000 HD
ENDBRANCH   8  24
TORSDOF 3
ENDMDL
