MODEL 1
REMARK VINA RESULT:      -5.8      0.000      0.000
REMARK  Name = PKR_Inhibitor.pdbqt.pdb
REMARK  0 active torsions:
REMARK  status: ('A' for Active; 'I' for Inactive)
REMARK                            x       y       z     vdW  Elec       q    Type
REMARK                         _______ _______ _______ _____ _____    ______ ____
ROOT
ATOM      1  S   UNL     1      -3.752 -37.437  -7.454  0.00  0.00    +0.000 S 
ATOM      2  O   UNL     1      -4.375 -31.690  -7.553  0.00  0.00    +0.000 OA
ATOM      3  N   UNL     1      -3.414 -32.844  -5.751  0.00  0.00    +0.000 N 
ATOM      4  N   UNL     1      -2.635 -38.256  -5.252  0.00  0.00    +0.000 NA
ATOM      5  C   UNL     1      -3.541 -35.001  -6.485  0.00  0.00    +0.000 A 
ATOM      6  C   UNL     1      -3.127 -34.160  -5.422  0.00  0.00    +0.000 A 
ATOM      7  C   UNL     1      -4.122 -34.113  -7.531  0.00  0.00    +0.000 C 
ATOM      8  C   UNL     1      -3.318 -36.323  -6.292  0.00  0.00    +0.000 A 
ATOM      9  C   UNL     1      -4.015 -32.712  -7.004  0.00  0.00    +0.000 C 
ATOM     10  C   UNL     1      -2.737 -36.878  -5.172  0.00  0.00    +0.000 A 
ATOM     11  C   UNL     1      -2.530 -34.600  -4.243  0.00  0.00    +0.000 A 
ATOM     12  C   UNL     1      -4.633 -34.403  -8.684  0.00  0.00    +0.000 C 
ATOM     13  C   UNL     1      -2.340 -35.997  -4.139  0.00  0.00    +0.000 A 
ATOM     14  C   UNL     1      -3.138 -38.646  -6.405  0.00  0.00    +0.000 A 
ATOM     15  H   UNL     1      -3.218 -32.045  -5.164  0.00  0.00    +0.000 HD
ATOM     16  C   UNL     1      -5.208 -34.637  -9.956  0.00  0.00    +0.000 C 
ATOM     17  N   UNL     1      -5.693 -33.668 -10.788  0.00  0.00    +0.000 N 
ATOM     18  C   UNL     1      -6.161 -34.285 -11.914  0.00  0.00    +0.000 C 
ATOM     19  H   UNL     1      -5.709 -32.673 -10.609  0.00  0.00    +0.000 HD
ATOM     20  N   UNL     1      -6.001 -35.588 -11.848  0.00  0.00    +0.000 NA
ATOM     21  C   UNL     1      -5.407 -35.819 -10.631  0.00  0.00    +0.000 C 
ENDROOT
TORSDOF 0
ENDMDL
MODEL 2
REMARK VINA RESULT:      -5.5      3.105      4.416
REMARK  Name = PKR_Inhibitor.pdbqt.pdb
REMARK  0 active torsions:
REMARK  status: ('A' for Active; 'I' for Inactive)
REMARK                            x       y       z     vdW  Elec       q    Type
REMARK                         _______ _______ _______ _____ _____    ______ ____
ROOT
ATOM      1  S   UNL     1      -2.908 -36.706  -7.504  0.00  0.00    +0.000 S 
ATOM      2  O   UNL     1      -4.008 -31.048  -7.959  0.00  0.00    +0.000 OA
ATOM      3  N   UNL     1      -2.375 -32.143  -9.239  0.00  0.00    +0.000 N 
ATOM      4  N   UNL     1      -1.018 -37.463  -9.124  0.00  0.00    +0.000 NA
ATOM      5  C   UNL     1      -2.573 -34.285  -8.476  0.00  0.00    +0.000 A 
ATOM      6  C   UNL     1      -1.880 -33.432  -9.371  0.00  0.00    +0.000 A 
ATOM      7  C   UNL     1      -3.559 -33.434  -7.752  0.00  0.00    +0.000 C 
ATOM      8  C   UNL     1      -2.185 -35.583  -8.501  0.00  0.00    +0.000 A 
ATOM      9  C   UNL     1      -3.390 -32.043  -8.287  0.00  0.00    +0.000 C 
ATOM     10  C   UNL     1      -1.200 -36.103  -9.312  0.00  0.00    +0.000 A 
ATOM     11  C   UNL     1      -0.869 -33.838 -10.237  0.00  0.00    +0.000 A 
ATOM     12  C   UNL     1      -4.421 -33.746  -6.838  0.00  0.00    +0.000 C 
ATOM     13  C   UNL     1      -0.538 -35.212 -10.189  0.00  0.00    +0.000 A 
ATOM     14  C   UNL     1      -1.863 -37.873  -8.200  0.00  0.00    +0.000 A 
ATOM     15  H   UNL     1      -2.051 -31.344  -9.765  0.00  0.00    +0.000 HD
ATOM     16  C   UNL     1      -5.387 -34.006  -5.837  0.00  0.00    +0.000 C 
ATOM     17  N   UNL     1      -6.219 -33.070  -5.288  0.00  0.00    +0.000 N 
ATOM     18  C   UNL     1      -7.001 -33.704  -4.363  0.00  0.00    +0.000 C 
ATOM     19  H   UNL     1      -6.254 -32.087  -5.518  0.00  0.00    +0.000 HD
ATOM     20  N   UNL     1      -6.717 -34.985  -4.292  0.00  0.00    +0.000 NA
ATOM     21  C   UNL     1      -5.711 -35.185  -5.207  0.00  0.00    +0.000 C 
ENDROOT
TORSDOF 0
ENDMDL
MODEL 3
REMARK VINA RESULT:      -5.4      1.730      5.571
REMARK  Name = PKR_Inhibitor.pdbqt.pdb
REMARK  0 active torsions:
REMARK  status: ('A' for Active; 'I' for Inactive)
REMARK                            x       y       z     vdW  Elec       q    Type
REMARK                         _______ _______ _______ _____ _____    ______ ____
ROOT
ATOM      1  S   UNL     1      -3.966 -37.054  -8.370  0.00  0.00    +0.000 S 
ATOM      2  O   UNL     1      -2.356 -33.776  -3.887  0.00  0.00    +0.000 OA
ATOM      3  N   UNL     1      -3.505 -32.928  -5.749  0.00  0.00    +0.000 N 
ATOM      4  N   UNL     1      -5.210 -35.671 -10.189  0.00  0.00    +0.000 NA
ATOM      5  C   UNL     1      -3.753 -34.809  -7.015  0.00  0.00    +0.000 A 
ATOM      6  C   UNL     1      -4.016 -33.419  -6.940  0.00  0.00    +0.000 A 
ATOM      7  C   UNL     1      -3.026 -35.175  -5.767  0.00  0.00    +0.000 C 
ATOM      8  C   UNL     1      -4.201 -35.420  -8.138  0.00  0.00    +0.000 A 
ATOM      9  C   UNL     1      -2.889 -33.910  -4.972  0.00  0.00    +0.000 C 
ATOM     10  C   UNL     1      -4.872 -34.798  -9.169  0.00  0.00    +0.000 A 
ATOM     11  C   UNL     1      -4.682 -32.680  -7.915  0.00  0.00    +0.000 A 
ATOM     12  C   UNL     1      -2.571 -36.319  -5.368  0.00  0.00    +0.000 C 
ATOM     13  C   UNL     1      -5.111 -33.409  -9.048  0.00  0.00    +0.000 A 
ATOM     14  C   UNL     1      -4.782 -36.875  -9.867  0.00  0.00    +0.000 A 
ATOM     15  H   UNL     1      -3.560 -31.964  -5.450  0.00  0.00    +0.000 HD
ATOM     16  C   UNL     1      -2.045 -37.532  -4.863  0.00  0.00    +0.000 C 
ATOM     17  N   UNL     1      -1.397 -37.668  -3.667  0.00  0.00    +0.000 N 
ATOM     18  C   UNL     1      -1.043 -38.981  -3.535  0.00  0.00    +0.000 C 
ATOM     19  H   UNL     1      -1.210 -36.934  -2.996  0.00  0.00    +0.000 HD
ATOM     20  N   UNL     1      -1.427 -39.688  -4.575  0.00  0.00    +0.000 NA
ATOM     21  C   UNL     1      -2.052 -38.794  -5.410  0.00  0.00    +0.000 C 
ENDROOT
TORSDOF 0
ENDMDL
MODEL 4
REMARK VINA RESULT:      -5.2     17.995     19.374
REMARK  Name = PKR_Inhibitor.pdbqt.pdb
REMARK  0 active torsions:
REMARK  status: ('A' for Active; 'I' for Inactive)
REMARK                            x       y       z     vdW  Elec       q    Type
REMARK                         _______ _______ _______ _____ _____    ______ ____
ROOT
ATOM      1  S   UNL     1      -4.420 -19.773 -17.173  0.00  0.00    +0.000 S 
ATOM      2  O   UNL     1      -4.296 -15.083 -13.794  0.00  0.00    +0.000 OA
ATOM      3  N   UNL     1      -2.388 -16.350 -14.298  0.00  0.00    +0.000 N 
ATOM      4  N   UNL     1      -2.062 -20.841 -17.441  0.00  0.00    +0.000 NA
ATOM      5  C   UNL     1      -3.269 -17.970 -15.642  0.00  0.00    +0.000 A 
ATOM      6  C   UNL     1      -2.083 -17.480 -15.042  0.00  0.00    +0.000 A 
ATOM      7  C   UNL     1      -4.369 -17.057 -15.221  0.00  0.00    +0.000 C 
ATOM      8  C   UNL     1      -3.114 -19.080 -16.402  0.00  0.00    +0.000 A 
ATOM      9  C   UNL     1      -3.741 -16.015 -14.343  0.00  0.00    +0.000 C 
ATOM     10  C   UNL     1      -1.921 -19.735 -16.620  0.00  0.00    +0.000 A 
ATOM     11  C   UNL     1      -0.822 -18.053 -15.186  0.00  0.00    +0.000 A 
ATOM     12  C   UNL     1      -5.632 -17.082 -15.505  0.00  0.00    +0.000 C 
ATOM     13  C   UNL     1      -0.764 -19.207 -16.000  0.00  0.00    +0.000 A 
ATOM     14  C   UNL     1      -3.330 -20.947 -17.784  0.00  0.00    +0.000 A 
ATOM     15  H   UNL     1      -1.718 -15.808 -13.770  0.00  0.00    +0.000 HD
ATOM     16  C   UNL     1      -7.022 -17.041 -15.767  0.00  0.00    +0.000 C 
ATOM     17  N   UNL     1      -7.885 -16.100 -15.278  0.00  0.00    +0.000 N 
ATOM     18  C   UNL     1      -9.132 -16.396 -15.752  0.00  0.00    +0.000 C 
ATOM     19  H   UNL     1      -7.650 -15.323 -14.675  0.00  0.00    +0.000 HD
ATOM     20  N   UNL     1      -9.114 -17.469 -16.513  0.00  0.00    +0.000 NA
ATOM     21  C   UNL     1      -7.803 -17.879 -16.529  0.00  0.00    +0.000 C 
ENDROOT
TORSDOF 0
ENDMDL
MODEL 5
REMARK VINA RESULT:      -5.1     18.157     20.422
REMARK  Name = PKR_Inhibitor.pdbqt.pdb
REMARK  0 active torsions:
REMARK  status: ('A' for Active; 'I' for Inactive)
REMARK                            x       y       z     vdW  Elec       q    Type
REMARK                         _______ _______ _______ _____ _____    ______ ____
ROOT
ATOM      1  S   UNL     1      -4.399 -14.856 -14.781  0.00  0.00    +0.000 S 
ATOM      2  O   UNL     1      -3.608 -20.509 -15.704  0.00  0.00    +0.000 OA
ATOM      3  N   UNL     1      -5.691 -19.453 -15.926  0.00  0.00    +0.000 N 
ATOM      4  N   UNL     1      -6.875 -14.148 -15.150  0.00  0.00    +0.000 NA
ATOM      5  C   UNL     1      -5.156 -17.297 -15.404  0.00  0.00    +0.000 A 
ATOM      6  C   UNL     1      -6.204 -18.173 -15.785  0.00  0.00    +0.000 A 
ATOM      7  C   UNL     1      -3.921 -18.125 -15.310  0.00  0.00    +0.000 C 
ATOM      8  C   UNL     1      -5.522 -16.005 -15.230  0.00  0.00    +0.000 A 
ATOM      9  C   UNL     1      -4.323 -19.527 -15.661  0.00  0.00    +0.000 C 
ATOM     10  C   UNL     1      -6.797 -15.508 -15.395  0.00  0.00    +0.000 A 
ATOM     11  C   UNL     1      -7.528 -17.792 -15.982  0.00  0.00    +0.000 A 
ATOM     12  C   UNL     1      -2.710 -17.788 -14.999  0.00  0.00    +0.000 C 
ATOM     13  C   UNL     1      -7.808 -16.421 -15.777  0.00  0.00    +0.000 A 
ATOM     14  C   UNL     1      -5.676 -13.713 -14.822  0.00  0.00    +0.000 A 
ATOM     15  H   UNL     1      -6.231 -20.265 -16.192  0.00  0.00    +0.000 HD
ATOM     16  C   UNL     1      -1.364 -17.501 -14.668  0.00  0.00    +0.000 C 
ATOM     17  N   UNL     1      -0.351 -18.418 -14.639  0.00  0.00    +0.000 N 
ATOM     18  C   UNL     1       0.792 -17.760 -14.279  0.00  0.00    +0.000 C 
ATOM     19  H   UNL     1      -0.426 -19.405 -14.845  0.00  0.00    +0.000 HD
ATOM     20  N   UNL     1       0.566 -16.481 -14.078  0.00  0.00    +0.000 NA
ATOM     21  C   UNL     1      -0.776 -16.308 -14.318  0.00  0.00    +0.000 C 
ENDROOT
TORSDOF 0
ENDMDL
MODEL 6
REMARK VINA RESULT:      -5.1      3.481      4.257
REMARK  Name = PKR_Inhibitor.pdbqt.pdb
REMARK  0 active torsions:
REMARK  status: ('A' for Active; 'I' for Inactive)
REMARK                            x       y       z     vdW  Elec       q    Type
REMARK                         _______ _______ _______ _____ _____    ______ ____
ROOT
ATOM      1  S   UNL     1      -7.197 -35.783  -6.263  0.00  0.00    +0.000 S 
ATOM      2  O   UNL     1      -2.430 -33.790  -3.668  0.00  0.00    +0.000 OA
ATOM      3  N   UNL     1      -3.888 -35.329  -2.663  0.00  0.00    +0.000 N 
ATOM      4  N   UNL     1      -8.491 -37.466  -4.758  0.00  0.00    +0.000 NA
ATOM      5  C   UNL     1      -5.461 -35.585  -4.297  0.00  0.00    +0.000 A 
ATOM      6  C   UNL     1      -5.066 -35.982  -2.994  0.00  0.00    +0.000 A 
ATOM      7  C   UNL     1      -4.434 -34.618  -4.778  0.00  0.00    +0.000 C 
ATOM      8  C   UNL     1      -6.605 -36.152  -4.748  0.00  0.00    +0.000 A 
ATOM      9  C   UNL     1      -3.428 -34.485  -3.674  0.00  0.00    +0.000 C 
ATOM     10  C   UNL     1      -7.377 -37.054  -4.048  0.00  0.00    +0.000 A 
ATOM     11  C   UNL     1      -5.759 -36.882  -2.191  0.00  0.00    +0.000 A 
ATOM     12  C   UNL     1      -4.350 -33.979  -5.901  0.00  0.00    +0.000 C 
ATOM     13  C   UNL     1      -6.941 -37.419  -2.752  0.00  0.00    +0.000 A 
ATOM     14  C   UNL     1      -8.489 -36.860  -5.928  0.00  0.00    +0.000 A 
ATOM     15  H   UNL     1      -3.394 -35.437  -1.788  0.00  0.00    +0.000 HD
ATOM     16  C   UNL     1      -4.186 -33.244  -7.099  0.00  0.00    +0.000 C 
ATOM     17  N   UNL     1      -3.152 -32.389  -7.359  0.00  0.00    +0.000 N 
ATOM     18  C   UNL     1      -3.345 -31.875  -8.612  0.00  0.00    +0.000 C 
ATOM     19  H   UNL     1      -2.381 -32.170  -6.743  0.00  0.00    +0.000 HD
ATOM     20  N   UNL     1      -4.438 -32.354  -9.162  0.00  0.00    +0.000 NA
ATOM     21  C   UNL     1      -4.971 -33.209  -8.228  0.00  0.00    +0.000 C 
ENDROOT
TORSDOF 0
ENDMDL
MODEL 7
REMARK VINA RESULT:      -5.0      5.592      7.404
REMARK  Name = PKR_Inhibitor.pdbqt.pdb
REMARK  0 active torsions:
REMARK  status: ('A' for Active; 'I' for Inactive)
REMARK                            x       y       z     vdW  Elec       q    Type
REMARK                         _______ _______ _______ _____ _____    ______ ____
ROOT
ATOM      1  S   UNL     1      -6.923 -35.129  -0.129  0.00  0.00    +0.000 S 
ATOM      2  O   UNL     1      -6.154 -32.816  -5.372  0.00  0.00    +0.000 OA
ATOM      3  N   UNL     1      -7.788 -32.063  -3.866  0.00  0.00    +0.000 N 
ATOM      4  N   UNL     1      -8.850 -33.963   1.175  0.00  0.00    +0.000 NA
ATOM      5  C   UNL     1      -7.437 -33.457  -2.094  0.00  0.00    +0.000 A 
ATOM      6  C   UNL     1      -8.219 -32.383  -2.588  0.00  0.00    +0.000 A 
ATOM      7  C   UNL     1      -6.462 -33.804  -3.166  0.00  0.00    +0.000 C 
ATOM      8  C   UNL     1      -7.755 -33.873  -0.845  0.00  0.00    +0.000 A 
ATOM      9  C   UNL     1      -6.732 -32.864  -4.304  0.00  0.00    +0.000 C 
ATOM     10  C   UNL     1      -8.751 -33.338  -0.057  0.00  0.00    +0.000 A 
ATOM     11  C   UNL     1      -9.250 -31.760  -1.889  0.00  0.00    +0.000 A 
ATOM     12  C   UNL     1      -5.539 -34.712  -3.196  0.00  0.00    +0.000 C 
ATOM     13  C   UNL     1      -9.504 -32.267  -0.594  0.00  0.00    +0.000 A 
ATOM     14  C   UNL     1      -7.939 -34.913   1.235  0.00  0.00    +0.000 A 
ATOM     15  H   UNL     1      -8.180 -31.331  -4.442  0.00  0.00    +0.000 HD
ATOM     16  C   UNL     1      -4.512 -35.678  -3.307  0.00  0.00    +0.000 C 
ATOM     17  N   UNL     1      -3.705 -35.843  -4.398  0.00  0.00    +0.000 N 
ATOM     18  C   UNL     1      -2.843 -36.869  -4.124  0.00  0.00    +0.000 C 
ATOM     19  H   UNL     1      -3.734 -35.308  -5.255  0.00  0.00    +0.000 HD
ATOM     20  N   UNL     1      -3.055 -37.364  -2.925  0.00  0.00    +0.000 NA
ATOM     21  C   UNL     1      -4.093 -36.630  -2.406  0.00  0.00    +0.000 C 
ENDROOT
TORSDOF 0
ENDMDL
MODEL 8
REMARK VINA RESULT:      -5.0     11.674     14.890
REMARK  Name = PKR_Inhibitor.pdbqt.pdb
REMARK  0 active torsions:
REMARK  status: ('A' for Active; 'I' for Inactive)
REMARK                            x       y       z     vdW  Elec       q    Type
REMARK                         _______ _______ _______ _____ _____    ______ ____
ROOT
ATOM      1  S   UNL     1       5.509 -30.621   3.347  0.00  0.00    +0.000 S 
ATOM      2  O   UNL     1       1.947 -35.117   2.618  0.00  0.00    +0.000 OA
ATOM      3  N   UNL     1       2.583 -33.689   0.869  0.00  0.00    +0.000 N 
ATOM      4  N   UNL     1       5.919 -29.335   1.123  0.00  0.00    +0.000 NA
ATOM      5  C   UNL     1       3.955 -32.228   1.962  0.00  0.00    +0.000 A 
ATOM      6  C   UNL     1       3.385 -32.569   0.709  0.00  0.00    +0.000 A 
ATOM      7  C   UNL     1       3.449 -33.227   2.946  0.00  0.00    +0.000 C 
ATOM      8  C   UNL     1       4.766 -31.144   1.949  0.00  0.00    +0.000 A 
ATOM      9  C   UNL     1       2.557 -34.160   2.181  0.00  0.00    +0.000 C 
ATOM     10  C   UNL     1       5.061 -30.383   0.839  0.00  0.00    +0.000 A 
ATOM     11  C   UNL     1       3.606 -31.879  -0.480  0.00  0.00    +0.000 A 
ATOM     12  C   UNL     1       3.681 -33.342   4.214  0.00  0.00    +0.000 C 
ATOM     13  C   UNL     1       4.468 -30.763  -0.389  0.00  0.00    +0.000 A 
ATOM     14  C   UNL     1       6.213 -29.372   2.407  0.00  0.00    +0.000 A 
ATOM     15  H   UNL     1       2.062 -34.136   0.127  0.00  0.00    +0.000 HD
ATOM     16  C   UNL     1       3.882 -33.535   5.602  0.00  0.00    +0.000 C 
ATOM     17  N   UNL     1       3.319 -34.534   6.345  0.00  0.00    +0.000 N 
ATOM     18  C   UNL     1       3.751 -34.386   7.633  0.00  0.00    +0.000 C 
ATOM     19  H   UNL     1       2.694 -35.255   6.009  0.00  0.00    +0.000 HD
ATOM     20  N   UNL     1       4.556 -33.353   7.753  0.00  0.00    +0.000 NA
ATOM     21  C   UNL     1       4.644 -32.814   6.492  0.00  0.00    +0.000 C 
ENDROOT
TORSDOF 0
ENDMDL
MODEL 9
REMARK VINA RESULT:      -5.0      2.288      2.310
REMARK  Name = PKR_Inhibitor.pdbqt.pdb
REMARK  0 active torsions:
REMARK  status: ('A' for Active; 'I' for Inactive)
REMARK                            x       y       z     vdW  Elec       q    Type
REMARK                         _______ _______ _______ _____ _____    ______ ____
ROOT
ATOM      1  S   UNL     1      -2.430 -36.948  -7.496  0.00  0.00    +0.000 S 
ATOM      2  O   UNL     1      -3.309 -31.330  -8.541  0.00  0.00    +0.000 OA
ATOM      3  N   UNL     1      -3.654 -32.312  -6.439  0.00  0.00    +0.000 N 
ATOM      4  N   UNL     1      -2.945 -37.570  -5.022  0.00  0.00    +0.000 NA
ATOM      5  C   UNL     1      -3.098 -34.484  -6.864  0.00  0.00    +0.000 A 
ATOM      6  C   UNL     1      -3.543 -33.573  -5.873  0.00  0.00    +0.000 A 
ATOM      7  C   UNL     1      -2.933 -33.700  -8.121  0.00  0.00    +0.000 C 
ATOM      8  C   UNL     1      -2.946 -35.762  -6.444  0.00  0.00    +0.000 A 
ATOM      9  C   UNL     1      -3.308 -32.286  -7.790  0.00  0.00    +0.000 C 
ATOM     10  C   UNL     1      -3.186 -36.214  -5.163  0.00  0.00    +0.000 A 
ATOM     11  C   UNL     1      -3.818 -33.907  -4.550  0.00  0.00    +0.000 A 
ATOM     12  C   UNL     1      -2.549 -34.079  -9.298  0.00  0.00    +0.000 C 
ATOM     13  C   UNL     1      -3.627 -35.266  -4.210  0.00  0.00    +0.000 A 
ATOM     14  C   UNL     1      -2.545 -38.046  -6.184  0.00  0.00    +0.000 A 
ATOM     15  H   UNL     1      -3.952 -31.482  -5.945  0.00  0.00    +0.000 HD
ATOM     16  C   UNL     1      -2.141 -34.413 -10.611  0.00  0.00    +0.000 C 
ATOM     17  N   UNL     1      -2.049 -33.532 -11.652  0.00  0.00    +0.000 N 
ATOM     18  C   UNL     1      -1.623 -34.229 -12.748  0.00  0.00    +0.000 C 
ATOM     19  H   UNL     1      -2.258 -32.543 -11.624  0.00  0.00    +0.000 HD
ATOM     20  N   UNL     1      -1.437 -35.499 -12.465  0.00  0.00    +0.000 NA
ATOM     21  C   UNL     1      -1.758 -35.626 -11.135  0.00  0.00    +0.000 C 
ENDROOT
TORSDOF 0
ENDMDL
