MODEL 1
REMARK VINA RESULT:      -6.6      0.000      0.000
REMARK  Name = 
REMARK  14 active torsions:
REMARK  status: ('A' for Active; 'I' for Inactive)
REMARK    1  A    between atoms: O_1  and  C_14
REMARK    2  A    between atoms: O_1  and  C_15
REMARK    3  A    between atoms: O_4  and  C_16
REMARK    4  A    between atoms: O_5  and  C_18
REMARK    5  A    between atoms: O_6  and  C_26
REMARK    6  A    between atoms: O_7  and  C_29
REMARK    7  A    between atoms: O_8  and  C_35
REMARK    8  A    between atoms: O_9  and  C_36
REMARK    9  A    between atoms: O_10  and  C_39
REMARK   10  A    between atoms: O_11  and  C_40
REMARK   11  A    between atoms: O_12  and  C_41
REMARK   12  A    between atoms: O_13  and  C_43
REMARK   13  A    between atoms: C_14  and  C_20
REMARK   14  A    between atoms: C_17  and  C_24
REMARK                            x       y       z     vdW  Elec       q    Type
REMARK                         _______ _______ _______ _____ _____    ______ ____
ROOT
ATOM      1  O   UNL     1      -5.939 -35.969  -4.404  0.00  0.00    +0.000 OA
ATOM      2  C   UNL     1      -5.332 -34.670  -4.444  0.00  0.00    +0.000 C 
ATOM      3  C   UNL     1      -6.070 -33.677  -3.495  0.00  0.00    +0.000 C 
ATOM      4  C   UNL     1      -7.556 -33.616  -3.835  0.00  0.00    +0.000 C 
ATOM      5  C   UNL     1      -8.138 -34.990  -3.982  0.00  0.00    +0.000 A 
ATOM      6  C   UNL     1      -7.295 -36.068  -4.267  0.00  0.00    +0.000 A 
ATOM      7  C   UNL     1      -9.516 -35.234  -3.884  0.00  0.00    +0.000 A 
ATOM      8  C   UNL     1      -7.817 -37.353  -4.431  0.00  0.00    +0.000 A 
ATOM      9  C   UNL     1     -10.048 -36.507  -4.066  0.00  0.00    +0.000 A 
ATOM     10  C   UNL     1      -9.188 -37.562  -4.334  0.00  0.00    +0.000 A 
ENDROOT
BRANCH   2  11
ATOM     11  C   UNL     1      -5.231 -34.097  -5.871  0.00  0.00    +0.000 A 
ATOM     12  C   UNL     1      -4.509 -32.908  -6.119  0.00  0.00    +0.000 A 
ATOM     13  C   UNL     1      -5.839 -34.745  -6.967  0.00  0.00    +0.000 A 
ATOM     14  C   UNL     1      -4.420 -32.398  -7.411  0.00  0.00    +0.000 A 
ATOM     15  C   UNL     1      -5.755 -34.217  -8.259  0.00  0.00    +0.000 A 
ATOM     16  C   UNL     1      -5.052 -33.044  -8.467  0.00  0.00    +0.000 A 
BRANCH  14  17
ATOM     17  O   UNL     1      -3.716 -31.264  -7.704  0.00  0.00    +0.000 OA
ATOM     18  H   UNL     1      -3.912 -30.576  -7.037  0.00  0.00    +0.000 HD
ENDBRANCH  14  17
BRANCH  16  19
ATOM     19  O   UNL     1      -4.966 -32.530  -9.729  0.00  0.00    +0.000 OA
ATOM     20  H   UNL     1      -5.194 -33.282 -10.313  0.00  0.00    +0.000 HD
ENDBRANCH  16  19
ENDBRANCH   2  11
BRANCH   3  21
ATOM     21  O   UNL     1      -5.935 -34.057  -2.095  0.00  0.00    +0.000 OA
ATOM     22  H   UNL     1      -6.807 -33.859  -1.697  0.00  0.00    +0.000 HD
ENDBRANCH   3  21
BRANCH   4  23
ATOM     23  O   UNL     1      -8.257 -32.909  -2.797  0.00  0.00    +0.000 OA
ATOM     24  H   UNL     1      -8.161 -33.487  -2.007  0.00  0.00    +0.000 HD
ENDBRANCH   4  23
BRANCH   7  25
ATOM     25  O   UNL     1     -10.402 -34.233  -3.587  0.00  0.00    +0.000 OA
ATOM     26  H   UNL     1     -10.200 -33.930  -2.674  0.00  0.00    +0.000 HD
ENDBRANCH   7  25
BRANCH  10  27
ATOM     27  O   UNL     1      -9.654 -38.832  -4.513  0.00  0.00    +0.000 OA
ATOM     28  H   UNL     1     -10.117 -38.871  -5.366  0.00  0.00    +0.000 HD
ENDBRANCH  10  27
BRANCH   2  29
ATOM     29  O   UNL     1      -4.007 -34.769  -3.850  0.00  0.00    +0.000 OA
BRANCH  29  31
ATOM     30  O   UNL     1      -2.027 -37.899  -3.741  0.00  0.00    +0.000 OA
ATOM     31  C   UNL     1      -3.620 -36.052  -3.322  0.00  0.00    +0.000 C 
ATOM     32  C   UNL     1      -2.427 -36.585  -4.155  0.00  0.00    +0.000 C 
ATOM     33  C   UNL     1      -3.154 -35.950  -1.866  0.00  0.00    +0.000 C 
ATOM     34  C   UNL     1      -2.308 -37.121  -1.450  0.00  0.00    +0.000 A 
ATOM     35  C   UNL     1      -1.802 -38.017  -2.396  0.00  0.00    +0.000 A 
ATOM     36  C   UNL     1      -2.001 -37.334  -0.100  0.00  0.00    +0.000 A 
ATOM     37  C   UNL     1      -1.049 -39.125  -2.002  0.00  0.00    +0.000 A 
ATOM     38  C   UNL     1      -1.237 -38.426   0.304  0.00  0.00    +0.000 A 
ATOM     39  C   UNL     1      -0.772 -39.317  -0.654  0.00  0.00    +0.000 A 
BRANCH  32  40
ATOM     40  C   UNL     1      -2.780 -36.660  -5.634  0.00  0.00    +0.000 A 
ATOM     41  C   UNL     1      -2.252 -35.735  -6.550  0.00  0.00    +0.000 A 
ATOM     42  C   UNL     1      -3.578 -37.714  -6.113  0.00  0.00    +0.000 A 
ATOM     43  C   UNL     1      -2.483 -35.899  -7.914  0.00  0.00    +0.000 A 
ATOM     44  C   UNL     1      -3.822 -37.862  -7.481  0.00  0.00    +0.000 A 
ATOM     45  C   UNL     1      -3.259 -36.960  -8.378  0.00  0.00    +0.000 A 
BRANCH  43  46
ATOM     46  O   UNL     1      -1.895 -35.059  -8.816  0.00  0.00    +0.000 OA
ATOM     47  H   UNL     1      -1.657 -34.230  -8.370  0.00  0.00    +0.000 HD
ENDBRANCH  43  46
BRANCH  45  48
ATOM     48  O   UNL     1      -3.432 -37.121  -9.723  0.00  0.00    +0.000 OA
ATOM     49  H   UNL     1      -4.357 -36.930  -9.949  0.00  0.00    +0.000 HD
ENDBRANCH  45  48
ENDBRANCH  32  40
BRANCH  36  50
ATOM     50  O   UNL     1      -2.473 -36.445   0.825  0.00  0.00    +0.000 OA
ATOM     51  H   UNL     1      -3.428 -36.327   0.691  0.00  0.00    +0.000 HD
ENDBRANCH  36  50
BRANCH  39  52
ATOM     52  O   UNL     1      -0.032 -40.381  -0.225  0.00  0.00    +0.000 OA
ATOM     53  H   UNL     1      -0.527 -40.843   0.474  0.00  0.00    +0.000 HD
ENDBRANCH  39  52
ENDBRANCH  29  31
ENDBRANCH   2  29
TORSDOF 14
ENDMDL
MODEL 2
REMARK VINA RESULT:      -6.3      2.091      7.531
REMARK  Name = 
REMARK  14 active torsions:
REMARK  status: ('A' for Active; 'I' for Inactive)
REMARK    1  A    between atoms: O_1  and  C_14
REMARK    2  A    between atoms: O_1  and  C_15
REMARK    3  A    between atoms: O_4  and  C_16
REMARK    4  A    between atoms: O_5  and  C_18
REMARK    5  A    between atoms: O_6  and  C_26
REMARK    6  A    between atoms: O_7  and  C_29
REMARK    7  A    between atoms: O_8  and  C_35
REMARK    8  A    between atoms: O_9  and  C_36
REMARK    9  A    between atoms: O_10  and  C_39
REMARK   10  A    between atoms: O_11  and  C_40
REMARK   11  A    between atoms: O_12  and  C_41
REMARK   12  A    between atoms: O_13  and  C_43
REMARK   13  A    between atoms: C_14  and  C_20
REMARK   14  A    between atoms: C_17  and  C_24
REMARK                            x       y       z     vdW  Elec       q    Type
REMARK                         _______ _______ _______ _____ _____    ______ ____
ROOT
ATOM      1  O   UNL     1      -6.004 -35.494  -6.408  0.00  0.00    +0.000 OA
ATOM      2  C   UNL     1      -5.529 -34.940  -5.173  0.00  0.00    +0.000 C 
ATOM      3  C   UNL     1      -5.150 -33.437  -5.342  0.00  0.00    +0.000 C 
ATOM      4  C   UNL     1      -4.133 -33.265  -6.465  0.00  0.00    +0.000 C 
ATOM      5  C   UNL     1      -4.549 -34.013  -7.696  0.00  0.00    +0.000 A 
ATOM      6  C   UNL     1      -5.444 -35.080  -7.584  0.00  0.00    +0.000 A 
ATOM      7  C   UNL     1      -4.038 -33.707  -8.966  0.00  0.00    +0.000 A 
ATOM      8  C   UNL     1      -5.828 -35.806  -8.714  0.00  0.00    +0.000 A 
ATOM      9  C   UNL     1      -4.399 -34.437 -10.095  0.00  0.00    +0.000 A 
ATOM     10  C   UNL     1      -5.300 -35.483  -9.958  0.00  0.00    +0.000 A 
ENDROOT
BRANCH   2  11
ATOM     11  C   UNL     1      -4.360 -35.739  -4.566  0.00  0.00    +0.000 A 
ATOM     12  C   UNL     1      -3.821 -35.383  -3.309  0.00  0.00    +0.000 A 
ATOM     13  C   UNL     1      -3.806 -36.852  -5.233  0.00  0.00    +0.000 A 
ATOM     14  C   UNL     1      -2.767 -36.111  -2.766  0.00  0.00    +0.000 A 
ATOM     15  C   UNL     1      -2.738 -37.568  -4.686  0.00  0.00    +0.000 A 
ATOM     16  C   UNL     1      -2.224 -37.186  -3.460  0.00  0.00    +0.000 A 
BRANCH  14  17
ATOM     17  O   UNL     1      -2.226 -35.818  -1.546  0.00  0.00    +0.000 OA
ATOM     18  H   UNL     1      -2.756 -36.244  -0.842  0.00  0.00    +0.000 HD
ENDBRANCH  14  17
BRANCH  16  19
ATOM     19  O   UNL     1      -1.183 -37.887  -2.922  0.00  0.00    +0.000 OA
ATOM     20  H   UNL     1      -0.909 -38.500  -3.635  0.00  0.00    +0.000 HD
ENDBRANCH  16  19
ENDBRANCH   2  11
BRANCH   3  21
ATOM     21  O   UNL     1      -6.311 -32.612  -5.644  0.00  0.00    +0.000 OA
ATOM     22  H   UNL     1      -6.621 -32.287  -4.774  0.00  0.00    +0.000 HD
ENDBRANCH   3  21
BRANCH   4  23
ATOM     23  O   UNL     1      -3.996 -31.868  -6.778  0.00  0.00    +0.000 OA
ATOM     24  H   UNL     1      -4.510 -31.758  -7.610  0.00  0.00    +0.000 HD
ENDBRANCH   4  23
BRANCH   7  25
ATOM     25  O   UNL     1      -3.173 -32.663  -9.160  0.00  0.00    +0.000 OA
ATOM     26  H   UNL     1      -2.558 -32.927  -9.879  0.00  0.00    +0.000 HD
ENDBRANCH   7  25
BRANCH  10  27
ATOM     27  O   UNL     1      -5.695 -36.227 -11.032  0.00  0.00    +0.000 OA
ATOM     28  H   UNL     1      -4.986 -36.856 -11.247  0.00  0.00    +0.000 HD
ENDBRANCH  10  27
BRANCH   2  29
ATOM     29  O   UNL     1      -6.643 -34.896  -4.237  0.00  0.00    +0.000 OA
BRANCH  29  31
ATOM     30  O   UNL     1      -9.113 -37.408  -3.090  0.00  0.00    +0.000 OA
ATOM     31  C   UNL     1      -7.682 -35.879  -4.408  0.00  0.00    +0.000 C 
ATOM     32  C   UNL     1      -8.130 -36.367  -3.007  0.00  0.00    +0.000 C 
ATOM     33  C   UNL     1      -8.913 -35.289  -5.104  0.00  0.00    +0.000 C 
ATOM     34  C   UNL     1     -10.154 -36.105  -4.865  0.00  0.00    +0.000 A 
ATOM     35  C   UNL     1     -10.182 -37.104  -3.888  0.00  0.00    +0.000 A 
ATOM     36  C   UNL     1     -11.313 -35.873  -5.616  0.00  0.00    +0.000 A 
ATOM     37  C   UNL     1     -11.324 -37.886  -3.696  0.00  0.00    +0.000 A 
ATOM     38  C   UNL     1     -12.463 -36.635  -5.422  0.00  0.00    +0.000 A 
ATOM     39  C   UNL     1     -12.455 -37.641  -4.465  0.00  0.00    +0.000 A 
BRANCH  32  40
ATOM     40  C   UNL     1      -6.951 -36.913  -2.213  0.00  0.00    +0.000 A 
ATOM     41  C   UNL     1      -6.491 -36.259  -1.059  0.00  0.00    +0.000 A 
ATOM     42  C   UNL     1      -6.360 -38.134  -2.585  0.00  0.00    +0.000 A 
ATOM     43  C   UNL     1      -5.498 -36.844  -0.277  0.00  0.00    +0.000 A 
ATOM     44  C   UNL     1      -5.351 -38.706  -1.807  0.00  0.00    +0.000 A 
ATOM     45  C   UNL     1      -4.935 -38.064  -0.645  0.00  0.00    +0.000 A 
BRANCH  43  46
ATOM     46  O   UNL     1      -5.114 -36.260   0.897  0.00  0.00    +0.000 OA
ATOM     47  H   UNL     1      -5.817 -36.381   1.557  0.00  0.00    +0.000 HD
ENDBRANCH  43  46
BRANCH  45  48
ATOM     48  O   UNL     1      -3.995 -38.636   0.165  0.00  0.00    +0.000 OA
ATOM     49  H   UNL     1      -3.751 -38.006   0.862  0.00  0.00    +0.000 HD
ENDBRANCH  45  48
ENDBRANCH  32  40
BRANCH  36  50
ATOM     50  O   UNL     1     -11.297 -34.880  -6.554  0.00  0.00    +0.000 OA
ATOM     51  H   UNL     1     -10.389 -34.541  -6.638  0.00  0.00    +0.000 HD
ENDBRANCH  36  50
BRANCH  39  52
ATOM     52  O   UNL     1     -13.595 -38.374  -4.305  0.00  0.00    +0.000 OA
ATOM     53  H   UNL     1     -13.601 -39.089  -4.964  0.00  0.00    +0.000 HD
ENDBRANCH  39  52
ENDBRANCH  29  31
ENDBRANCH   2  29
TORSDOF 14
ENDMDL
MODEL 3
REMARK VINA RESULT:      -6.2     17.554     20.838
REMARK  Name = 
REMARK  14 active torsions:
REMARK  status: ('A' for Active; 'I' for Inactive)
REMARK    1  A    between atoms: O_1  and  C_14
REMARK    2  A    between atoms: O_1  and  C_15
REMARK    3  A    between atoms: O_4  and  C_16
REMARK    4  A    between atoms: O_5  and  C_18
REMARK    5  A    between atoms: O_6  and  C_26
REMARK    6  A    between atoms: O_7  and  C_29
REMARK    7  A    between atoms: O_8  and  C_35
REMARK    8  A    between atoms: O_9  and  C_36
REMARK    9  A    between atoms: O_10  and  C_39
REMARK   10  A    between atoms: O_11  and  C_40
REMARK   11  A    between atoms: O_12  and  C_41
REMARK   12  A    between atoms: O_13  and  C_43
REMARK   13  A    between atoms: C_14  and  C_20
REMARK   14  A    between atoms: C_17  and  C_24
REMARK                            x       y       z     vdW  Elec       q    Type
REMARK                         _______ _______ _______ _____ _____    ______ ____
ROOT
ATOM      1  O   UNL     1      -1.516 -17.910   1.832  0.00  0.00    +0.000 OA
ATOM      2  C   UNL     1      -1.558 -18.091   0.410  0.00  0.00    +0.000 C 
ATOM      3  C   UNL     1      -1.408 -19.596   0.031  0.00  0.00    +0.000 C 
ATOM      4  C   UNL     1      -0.134 -20.175   0.637  0.00  0.00    +0.000 C 
ATOM      5  C   UNL     1      -0.006 -19.813   2.086  0.00  0.00    +0.000 A 
ATOM      6  C   UNL     1      -0.694 -18.703   2.582  0.00  0.00    +0.000 A 
ATOM      7  C   UNL     1       0.819 -20.529   2.967  0.00  0.00    +0.000 A 
ATOM      8  C   UNL     1      -0.572 -18.332   3.924  0.00  0.00    +0.000 A 
ATOM      9  C   UNL     1       0.963 -20.156   4.300  0.00  0.00    +0.000 A 
ATOM     10  C   UNL     1       0.258 -19.058   4.770  0.00  0.00    +0.000 A 
ENDROOT
BRANCH   2  11
ATOM     11  C   UNL     1      -0.521 -17.229  -0.336  0.00  0.00    +0.000 A 
ATOM     12  C   UNL     1      -0.327 -17.379  -1.728  0.00  0.00    +0.000 A 
ATOM     13  C   UNL     1       0.250 -16.259   0.339  0.00  0.00    +0.000 A 
ATOM     14  C   UNL     1       0.609 -16.596  -2.395  0.00  0.00    +0.000 A 
ATOM     15  C   UNL     1       1.198 -15.486  -0.338  0.00  0.00    +0.000 A 
ATOM     16  C   UNL     1       1.373 -15.667  -1.697  0.00  0.00    +0.000 A 
BRANCH  14  17
ATOM     17  O   UNL     1       0.817 -16.690  -3.742  0.00  0.00    +0.000 OA
ATOM     18  H   UNL     1       1.775 -16.625  -3.930  0.00  0.00    +0.000 HD
ENDBRANCH  14  17
BRANCH  16  19
ATOM     19  O   UNL     1       2.296 -14.910  -2.360  0.00  0.00    +0.000 OA
ATOM     20  H   UNL     1       2.179 -15.153  -3.301  0.00  0.00    +0.000 HD
ENDBRANCH  16  19
ENDBRANCH   2  11
BRANCH   3  21
ATOM     21  O   UNL     1      -2.538 -20.390   0.494  0.00  0.00    +0.000 OA
ATOM     22  H   UNL     1      -2.634 -21.101  -0.173  0.00  0.00    +0.000 HD
ENDBRANCH   3  21
BRANCH   4  23
ATOM     23  O   UNL     1      -0.146 -21.607   0.502  0.00  0.00    +0.000 OA
ATOM     24  H   UNL     1       0.697 -21.811   0.039  0.00  0.00    +0.000 HD
ENDBRANCH   4  23
BRANCH   7  25
ATOM     25  O   UNL     1       1.508 -21.641   2.561  0.00  0.00    +0.000 OA
ATOM     26  H   UNL     1       0.983 -22.424   2.837  0.00  0.00    +0.000 HD
ENDBRANCH   7  25
BRANCH  10  27
ATOM     27  O   UNL     1       0.355 -18.653   6.069  0.00  0.00    +0.000 OA
ATOM     28  H   UNL     1      -0.532 -18.680   6.466  0.00  0.00    +0.000 HD
ENDBRANCH  10  27
BRANCH   2  29
ATOM     29  O   UNL     1      -2.900 -17.768  -0.051  0.00  0.00    +0.000 OA
BRANCH  29  31
ATOM     30  O   UNL     1      -5.028 -14.742   0.159  0.00  0.00    +0.000 OA
ATOM     31  C   UNL     1      -3.586 -16.697   0.627  0.00  0.00    +0.000 C 
ATOM     32  C   UNL     1      -4.375 -15.878  -0.425  0.00  0.00    +0.000 C 
ATOM     33  C   UNL     1      -4.596 -17.227   1.650  0.00  0.00    +0.000 C 
ATOM     34  C   UNL     1      -5.642 -16.207   2.006  0.00  0.00    +0.000 A 
ATOM     35  C   UNL     1      -5.794 -15.039   1.253  0.00  0.00    +0.000 A 
ATOM     36  C   UNL     1      -6.493 -16.412   3.099  0.00  0.00    +0.000 A 
ATOM     37  C   UNL     1      -6.741 -14.076   1.610  0.00  0.00    +0.000 A 
ATOM     38  C   UNL     1      -7.452 -15.467   3.455  0.00  0.00    +0.000 A 
ATOM     39  C   UNL     1      -7.563 -14.301   2.708  0.00  0.00    +0.000 A 
BRANCH  32  40
ATOM     40  C   UNL     1      -3.455 -15.362  -1.523  0.00  0.00    +0.000 A 
ATOM     41  C   UNL     1      -3.583 -15.816  -2.845  0.00  0.00    +0.000 A 
ATOM     42  C   UNL     1      -2.515 -14.356  -1.236  0.00  0.00    +0.000 A 
ATOM     43  C   UNL     1      -2.820 -15.237  -3.856  0.00  0.00    +0.000 A 
ATOM     44  C   UNL     1      -1.739 -13.792  -2.252  0.00  0.00    +0.000 A 
ATOM     45  C   UNL     1      -1.907 -14.226  -3.563  0.00  0.00    +0.000 A 
BRANCH  43  46
ATOM     46  O   UNL     1      -3.008 -15.608  -5.158  0.00  0.00    +0.000 OA
ATOM     47  H   UNL     1      -3.537 -16.422  -5.183  0.00  0.00    +0.000 HD
ENDBRANCH  43  46
BRANCH  45  48
ATOM     48  O   UNL     1      -1.204 -13.646  -4.580  0.00  0.00    +0.000 OA
ATOM     49  H   UNL     1      -1.534 -12.743  -4.719  0.00  0.00    +0.000 HD
ENDBRANCH  45  48
ENDBRANCH  32  40
BRANCH  36  50
ATOM     50  O   UNL     1      -6.363 -17.565   3.821  0.00  0.00    +0.000 OA
ATOM     51  H   UNL     1      -5.539 -17.523   4.336  0.00  0.00    +0.000 HD
ENDBRANCH  36  50
BRANCH  39  52
ATOM     52  O   UNL     1      -8.507 -13.392   3.087  0.00  0.00    +0.000 OA
ATOM     53  H   UNL     1      -9.198 -13.852   3.594  0.00  0.00    +0.000 HD
ENDBRANCH  39  52
ENDBRANCH  29  31
ENDBRANCH   2  29
TORSDOF 14
ENDMDL
MODEL 4
REMARK VINA RESULT:      -6.0     18.796     21.488
REMARK  Name = 
REMARK  14 active torsions:
REMARK  status: ('A' for Active; 'I' for Inactive)
REMARK    1  A    between atoms: O_1  and  C_14
REMARK    2  A    between atoms: O_1  and  C_15
REMARK    3  A    between atoms: O_4  and  C_16
REMARK    4  A    between atoms: O_5  and  C_18
REMARK    5  A    between atoms: O_6  and  C_26
REMARK    6  A    between atoms: O_7  and  C_29
REMARK    7  A    between atoms: O_8  and  C_35
REMARK    8  A    between atoms: O_9  and  C_36
REMARK    9  A    between atoms: O_10  and  C_39
REMARK   10  A    between atoms: O_11  and  C_40
REMARK   11  A    between atoms: O_12  and  C_41
REMARK   12  A    between atoms: O_13  and  C_43
REMARK   13  A    between atoms: C_14  and  C_20
REMARK   14  A    between atoms: C_17  and  C_24
REMARK                            x       y       z     vdW  Elec       q    Type
REMARK                         _______ _______ _______ _____ _____    ______ ____
ROOT
ATOM      1  O   UNL     1      -4.081 -14.363   0.170  0.00  0.00    +0.000 OA
ATOM      2  C   UNL     1      -2.799 -14.096  -0.414  0.00  0.00    +0.000 C 
ATOM      3  C   UNL     1      -2.363 -12.620  -0.161  0.00  0.00    +0.000 C 
ATOM      4  C   UNL     1      -3.428 -11.654  -0.672  0.00  0.00    +0.000 C 
ATOM      5  C   UNL     1      -4.796 -12.057  -0.210  0.00  0.00    +0.000 A 
ATOM      6  C   UNL     1      -5.033 -13.382   0.167  0.00  0.00    +0.000 A 
ATOM      7  C   UNL     1      -5.872 -11.157  -0.181  0.00  0.00    +0.000 A 
ATOM      8  C   UNL     1      -6.305 -13.787   0.578  0.00  0.00    +0.000 A 
ATOM      9  C   UNL     1      -7.147 -11.556   0.208  0.00  0.00    +0.000 A 
ATOM     10  C   UNL     1      -7.352 -12.873   0.591  0.00  0.00    +0.000 A 
ENDROOT
BRANCH   2  11
ATOM     11  C   UNL     1      -2.738 -14.440  -1.915  0.00  0.00    +0.000 A 
ATOM     12  C   UNL     1      -1.737 -13.883  -2.742  0.00  0.00    +0.000 A 
ATOM     13  C   UNL     1      -3.665 -15.327  -2.503  0.00  0.00    +0.000 A 
ATOM     14  C   UNL     1      -1.687 -14.199  -4.095  0.00  0.00    +0.000 A 
ATOM     15  C   UNL     1      -3.615 -15.628  -3.867  0.00  0.00    +0.000 A 
ATOM     16  C   UNL     1      -2.631 -15.056  -4.651  0.00  0.00    +0.000 A 
BRANCH  14  17
ATOM     17  O   UNL     1      -0.726 -13.703  -4.929  0.00  0.00    +0.000 OA
ATOM     18  H   UNL     1      -0.466 -14.390  -5.575  0.00  0.00    +0.000 HD
ENDBRANCH  14  17
BRANCH  16  19
ATOM     19  O   UNL     1      -2.579 -15.352  -5.983  0.00  0.00    +0.000 OA
ATOM     20  H   UNL     1      -3.484 -15.171  -6.308  0.00  0.00    +0.000 HD
ENDBRANCH  16  19
ENDBRANCH   2  11
BRANCH   3  21
ATOM     21  O   UNL     1      -2.140 -12.351   1.252  0.00  0.00    +0.000 OA
ATOM     22  H   UNL     1      -2.770 -12.935   1.721  0.00  0.00    +0.000 HD
ENDBRANCH   3  21
BRANCH   4  23
ATOM     23  O   UNL     1      -3.137 -10.327  -0.200  0.00  0.00    +0.000 OA
ATOM     24  H   UNL     1      -3.955 -10.057   0.273  0.00  0.00    +0.000 HD
ENDBRANCH   4  23
BRANCH   7  25
ATOM     25  O   UNL     1      -5.714  -9.839  -0.516  0.00  0.00    +0.000 OA
ATOM     26  H   UNL     1      -6.006  -9.307   0.257  0.00  0.00    +0.000 HD
ENDBRANCH   7  25
BRANCH  10  27
ATOM     27  O   UNL     1      -8.580 -13.315   0.989  0.00  0.00    +0.000 OA
ATOM     28  H   UNL     1      -8.454 -14.012   1.655  0.00  0.00    +0.000 HD
ENDBRANCH  10  27
BRANCH   2  29
ATOM     29  O   UNL     1      -1.799 -14.863   0.314  0.00  0.00    +0.000 OA
BRANCH  29  31
ATOM     30  O   UNL     1       0.126 -18.002  -0.094  0.00  0.00    +0.000 OA
ATOM     31  C   UNL     1      -1.603 -16.233  -0.087  0.00  0.00    +0.000 C 
ATOM     32  C   UNL     1      -0.179 -16.669   0.339  0.00  0.00    +0.000 C 
ATOM     33  C   UNL     1      -2.597 -17.174   0.600  0.00  0.00    +0.000 C 
ATOM     34  C   UNL     1      -2.130 -18.604   0.598  0.00  0.00    +0.000 A 
ATOM     35  C   UNL     1      -0.816 -18.932   0.254  0.00  0.00    +0.000 A 
ATOM     36  C   UNL     1      -3.006 -19.639   0.949  0.00  0.00    +0.000 A 
ATOM     37  C   UNL     1      -0.397 -20.264   0.215  0.00  0.00    +0.000 A 
ATOM     38  C   UNL     1      -2.596 -20.970   0.931  0.00  0.00    +0.000 A 
ATOM     39  C   UNL     1      -1.292 -21.271   0.557  0.00  0.00    +0.000 A 
BRANCH  32  40
ATOM     40  C   UNL     1       0.878 -15.744  -0.250  0.00  0.00    +0.000 A 
ATOM     41  C   UNL     1       1.005 -15.583  -1.638  0.00  0.00    +0.000 A 
ATOM     42  C   UNL     1       1.690 -14.974   0.603  0.00  0.00    +0.000 A 
ATOM     43  C   UNL     1       1.889 -14.636  -2.151  0.00  0.00    +0.000 A 
ATOM     44  C   UNL     1       2.589 -14.040   0.082  0.00  0.00    +0.000 A 
ATOM     45  C   UNL     1       2.673 -13.864  -1.295  0.00  0.00    +0.000 A 
BRANCH  43  46
ATOM     46  O   UNL     1       1.948 -14.408  -3.496  0.00  0.00    +0.000 OA
ATOM     47  H   UNL     1       1.705 -15.222  -3.968  0.00  0.00    +0.000 HD
ENDBRANCH  43  46
BRANCH  45  48
ATOM     48  O   UNL     1       3.498 -12.913  -1.823  0.00  0.00    +0.000 OA
ATOM     49  H   UNL     1       3.066 -12.046  -1.759  0.00  0.00    +0.000 HD
ENDBRANCH  45  48
ENDBRANCH  32  40
BRANCH  36  50
ATOM     50  O   UNL     1      -4.284 -19.319   1.311  0.00  0.00    +0.000 OA
ATOM     51  H   UNL     1      -4.452 -18.388   1.086  0.00  0.00    +0.000 HD
ENDBRANCH  36  50
BRANCH  39  52
ATOM     52  O   UNL     1      -0.924 -22.584   0.541  0.00  0.00    +0.000 OA
ATOM     53  H   UNL     1      -0.372 -22.744  -0.244  0.00  0.00    +0.000 HD
ENDBRANCH  39  52
ENDBRANCH  29  31
ENDBRANCH   2  29
TORSDOF 14
ENDMDL
MODEL 5
REMARK VINA RESULT:      -5.9     20.725     24.650
REMARK  Name = 
REMARK  14 active torsions:
REMARK  status: ('A' for Active; 'I' for Inactive)
REMARK    1  A    between atoms: O_1  and  C_14
REMARK    2  A    between atoms: O_1  and  C_15
REMARK    3  A    between atoms: O_4  and  C_16
REMARK    4  A    between atoms: O_5  and  C_18
REMARK    5  A    between atoms: O_6  and  C_26
REMARK    6  A    between atoms: O_7  and  C_29
REMARK    7  A    between atoms: O_8  and  C_35
REMARK    8  A    between atoms: O_9  and  C_36
REMARK    9  A    between atoms: O_10  and  C_39
REMARK   10  A    between atoms: O_11  and  C_40
REMARK   11  A    between atoms: O_12  and  C_41
REMARK   12  A    between atoms: O_13  and  C_43
REMARK   13  A    between atoms: C_14  and  C_20
REMARK   14  A    between atoms: C_17  and  C_24
REMARK                            x       y       z     vdW  Elec       q    Type
REMARK                         _______ _______ _______ _____ _____    ______ ____
ROOT
ATOM      1  O   UNL     1     -17.159 -15.558  -4.239  0.00  0.00    +0.000 OA
ATOM      2  C   UNL     1     -18.318 -16.326  -3.885  0.00  0.00    +0.000 C 
ATOM      3  C   UNL     1     -18.576 -17.463  -4.921  0.00  0.00    +0.000 C 
ATOM      4  C   UNL     1     -18.689 -16.887  -6.329  0.00  0.00    +0.000 C 
ATOM      5  C   UNL     1     -17.570 -15.932  -6.618  0.00  0.00    +0.000 A 
ATOM      6  C   UNL     1     -16.891 -15.325  -5.559  0.00  0.00    +0.000 A 
ATOM      7  C   UNL     1     -17.201 -15.586  -7.927  0.00  0.00    +0.000 A 
ATOM      8  C   UNL     1     -15.860 -14.415  -5.804  0.00  0.00    +0.000 A 
ATOM      9  C   UNL     1     -16.189 -14.665  -8.182  0.00  0.00    +0.000 A 
ATOM     10  C   UNL     1     -15.521 -14.088  -7.112  0.00  0.00    +0.000 A 
ENDROOT
BRANCH   2  11
ATOM     11  C   UNL     1     -19.577 -15.459  -3.692  0.00  0.00    +0.000 A 
ATOM     12  C   UNL     1     -19.547 -14.075  -3.973  0.00  0.00    +0.000 A 
ATOM     13  C   UNL     1     -20.793 -16.019  -3.247  0.00  0.00    +0.000 A 
ATOM     14  C   UNL     1     -20.689 -13.298  -3.798  0.00  0.00    +0.000 A 
ATOM     15  C   UNL     1     -21.931 -15.228  -3.061  0.00  0.00    +0.000 A 
ATOM     16  C   UNL     1     -21.865 -13.874  -3.332  0.00  0.00    +0.000 A 
BRANCH  14  17
ATOM     17  O   UNL     1     -20.715 -11.961  -4.076  0.00  0.00    +0.000 OA
ATOM     18  H   UNL     1     -19.932 -11.723  -4.613  0.00  0.00    +0.000 HD
ENDBRANCH  14  17
BRANCH  16  19
ATOM     19  O   UNL     1     -22.977 -13.101  -3.155  0.00  0.00    +0.000 OA
ATOM     20  H   UNL     1     -23.510 -13.253  -3.962  0.00  0.00    +0.000 HD
ENDBRANCH  16  19
ENDBRANCH   2  11
BRANCH   3  21
ATOM     21  O   UNL     1     -17.513 -18.458  -4.916  0.00  0.00    +0.000 OA
ATOM     22  H   UNL     1     -16.706 -17.961  -4.670  0.00  0.00    +0.000 HD
ENDBRANCH   3  21
BRANCH   4  23
ATOM     23  O   UNL     1     -18.663 -17.958  -7.288  0.00  0.00    +0.000 OA
ATOM     24  H   UNL     1     -19.153 -18.687  -6.846  0.00  0.00    +0.000 HD
ENDBRANCH   4  23
BRANCH   7  25
ATOM     25  O   UNL     1     -17.805 -16.154  -9.017  0.00  0.00    +0.000 OA
ATOM     26  H   UNL     1     -17.940 -17.105  -8.810  0.00  0.00    +0.000 HD
ENDBRANCH   7  25
BRANCH  10  27
ATOM     27  O   UNL     1     -14.516 -13.185  -7.304  0.00  0.00    +0.000 OA
ATOM     28  H   UNL     1     -13.976 -13.483  -8.055  0.00  0.00    +0.000 HD
ENDBRANCH  10  27
BRANCH   2  29
ATOM     29  O   UNL     1     -18.022 -17.057  -2.661  0.00  0.00    +0.000 OA
BRANCH  29  31
ATOM     30  O   UNL     1     -15.953 -16.145   0.273  0.00  0.00    +0.000 OA
ATOM     31  C   UNL     1     -16.798 -16.725  -1.978  0.00  0.00    +0.000 C 
ATOM     32  C   UNL     1     -17.109 -16.554  -0.471  0.00  0.00    +0.000 C 
ATOM     33  C   UNL     1     -15.755 -17.839  -2.109  0.00  0.00    +0.000 C 
ATOM     34  C   UNL     1     -14.694 -17.760  -1.046  0.00  0.00    +0.000 A 
ATOM     35  C   UNL     1     -14.850 -16.928   0.067  0.00  0.00    +0.000 A 
ATOM     36  C   UNL     1     -13.527 -18.528  -1.146  0.00  0.00    +0.000 A 
ATOM     37  C   UNL     1     -13.846 -16.829   1.032  0.00  0.00    +0.000 A 
ATOM     38  C   UNL     1     -12.526 -18.451  -0.181  0.00  0.00    +0.000 A 
ATOM     39  C   UNL     1     -12.693 -17.594   0.899  0.00  0.00    +0.000 A 
BRANCH  32  40
ATOM     40  C   UNL     1     -18.190 -15.504  -0.248  0.00  0.00    +0.000 A 
ATOM     41  C   UNL     1     -17.981 -14.164  -0.609  0.00  0.00    +0.000 A 
ATOM     42  C   UNL     1     -19.449 -15.888   0.249  0.00  0.00    +0.000 A 
ATOM     43  C   UNL     1     -19.027 -13.248  -0.517  0.00  0.00    +0.000 A 
ATOM     44  C   UNL     1     -20.488 -14.961   0.357  0.00  0.00    +0.000 A 
ATOM     45  C   UNL     1     -20.276 -13.645  -0.043  0.00  0.00    +0.000 A 
BRANCH  43  46
ATOM     46  O   UNL     1     -18.858 -11.966  -0.956  0.00  0.00    +0.000 OA
ATOM     47  H   UNL     1     -18.368 -11.979  -1.795  0.00  0.00    +0.000 HD
ENDBRANCH  43  46
BRANCH  45  48
ATOM     48  O   UNL     1     -21.295 -12.737  -0.005  0.00  0.00    +0.000 OA
ATOM     49  H   UNL     1     -21.125 -12.042  -0.662  0.00  0.00    +0.000 HD
ENDBRANCH  45  48
ENDBRANCH  32  40
BRANCH  36  50
ATOM     50  O   UNL     1     -13.383 -19.362  -2.220  0.00  0.00    +0.000 OA
ATOM     51  H   UNL     1     -14.257 -19.518  -2.617  0.00  0.00    +0.000 HD
ENDBRANCH  36  50
BRANCH  39  52
ATOM     52  O   UNL     1     -11.690 -17.535   1.823  0.00  0.00    +0.000 OA
ATOM     53  H   UNL     1     -10.874 -17.249   1.379  0.00  0.00    +0.000 HD
ENDBRANCH  39  52
ENDBRANCH  29  31
ENDBRANCH   2  29
TORSDOF 14
ENDMDL
MODEL 6
REMARK VINA RESULT:      -5.8     10.546     14.601
REMARK  Name = 
REMARK  14 active torsions:
REMARK  status: ('A' for Active; 'I' for Inactive)
REMARK    1  A    between atoms: O_1  and  C_14
REMARK    2  A    between atoms: O_1  and  C_15
REMARK    3  A    between atoms: O_4  and  C_16
REMARK    4  A    between atoms: O_5  and  C_18
REMARK    5  A    between atoms: O_6  and  C_26
REMARK    6  A    between atoms: O_7  and  C_29
REMARK    7  A    between atoms: O_8  and  C_35
REMARK    8  A    between atoms: O_9  and  C_36
REMARK    9  A    between atoms: O_10  and  C_39
REMARK   10  A    between atoms: O_11  and  C_40
REMARK   11  A    between atoms: O_12  and  C_41
REMARK   12  A    between atoms: O_13  and  C_43
REMARK   13  A    between atoms: C_14  and  C_20
REMARK   14  A    between atoms: C_17  and  C_24
REMARK                            x       y       z     vdW  Elec       q    Type
REMARK                         _______ _______ _______ _____ _____    ______ ____
ROOT
ATOM      1  O   UNL     1      -5.436 -33.423   9.057  0.00  0.00    +0.000 OA
ATOM      2  C   UNL     1      -5.623 -32.143   8.437  0.00  0.00    +0.000 C 
ATOM      3  C   UNL     1      -4.321 -31.289   8.510  0.00  0.00    +0.000 C 
ATOM      4  C   UNL     1      -3.851 -31.153   9.954  0.00  0.00    +0.000 C 
ATOM      5  C   UNL     1      -3.843 -32.480  10.652  0.00  0.00    +0.000 A 
ATOM      6  C   UNL     1      -4.642 -33.519  10.165  0.00  0.00    +0.000 A 
ATOM      7  C   UNL     1      -3.090 -32.712  11.812  0.00  0.00    +0.000 A 
ATOM      8  C   UNL     1      -4.670 -34.757  10.812  0.00  0.00    +0.000 A 
ATOM      9  C   UNL     1      -3.126 -33.936  12.475  0.00  0.00    +0.000 A 
ATOM     10  C   UNL     1      -3.917 -34.954  11.963  0.00  0.00    +0.000 A 
ENDROOT
BRANCH   2  11
ATOM     11  C   UNL     1      -6.825 -31.368   9.012  0.00  0.00    +0.000 A 
ATOM     12  C   UNL     1      -7.044 -30.017   8.661  0.00  0.00    +0.000 A 
ATOM     13  C   UNL     1      -7.744 -31.982   9.888  0.00  0.00    +0.000 A 
ATOM     14  C   UNL     1      -8.132 -29.323   9.182  0.00  0.00    +0.000 A 
ATOM     15  C   UNL     1      -8.826 -31.273  10.417  0.00  0.00    +0.000 A 
ATOM     16  C   UNL     1      -9.006 -29.948  10.064  0.00  0.00    +0.000 A 
BRANCH  14  17
ATOM     17  O   UNL     1      -8.397 -28.023   8.855  0.00  0.00    +0.000 OA
ATOM     18  H   UNL     1      -8.226 -27.450   9.630  0.00  0.00    +0.000 HD
ENDBRANCH  14  17
BRANCH  16  19
ATOM     19  O   UNL     1     -10.065 -29.256  10.577  0.00  0.00    +0.000 OA
ATOM     20  H   UNL     1      -9.659 -28.608  11.188  0.00  0.00    +0.000 HD
ENDBRANCH  16  19
ENDBRANCH   2  11
BRANCH   3  21
ATOM     21  O   UNL     1      -3.240 -31.873   7.728  0.00  0.00    +0.000 OA
ATOM     22  H   UNL     1      -3.110 -31.256   6.980  0.00  0.00    +0.000 HD
ENDBRANCH   3  21
BRANCH   4  23
ATOM     23  O   UNL     1      -2.525 -30.596   9.976  0.00  0.00    +0.000 OA
ATOM     24  H   UNL     1      -2.606 -29.765   9.457  0.00  0.00    +0.000 HD
ENDBRANCH   4  23
BRANCH   7  25
ATOM     25  O   UNL     1      -2.267 -31.752  12.338  0.00  0.00    +0.000 OA
ATOM     26  H   UNL     1      -1.472 -32.212  12.687  0.00  0.00    +0.000 HD
ENDBRANCH   7  25
BRANCH  10  27
ATOM     27  O   UNL     1      -3.983 -36.175  12.567  0.00  0.00    +0.000 OA
ATOM     28  H   UNL     1      -3.914 -36.046  13.528  0.00  0.00    +0.000 HD
ENDBRANCH  10  27
BRANCH   2  29
ATOM     29  O   UNL     1      -5.801 -32.351   7.008  0.00  0.00    +0.000 OA
BRANCH  29  31
ATOM     30  O   UNL     1      -8.096 -34.405   4.947  0.00  0.00    +0.000 OA
ATOM     31  C   UNL     1      -6.455 -33.569   6.599  0.00  0.00    +0.000 C 
ATOM     32  C   UNL     1      -7.348 -33.257   5.372  0.00  0.00    +0.000 C 
ATOM     33  C   UNL     1      -5.445 -34.639   6.173  0.00  0.00    +0.000 C 
ATOM     34  C   UNL     1      -6.064 -35.700   5.305  0.00  0.00    +0.000 A 
ATOM     35  C   UNL     1      -7.337 -35.526   4.752  0.00  0.00    +0.000 A 
ATOM     36  C   UNL     1      -5.373 -36.885   5.027  0.00  0.00    +0.000 A 
ATOM     37  C   UNL     1      -7.925 -36.530   3.979  0.00  0.00    +0.000 A 
ATOM     38  C   UNL     1      -5.942 -37.887   4.243  0.00  0.00    +0.000 A 
ATOM     39  C   UNL     1      -7.219 -37.701   3.730  0.00  0.00    +0.000 A 
BRANCH  32  40
ATOM     40  C   UNL     1      -8.346 -32.151   5.686  0.00  0.00    +0.000 A 
ATOM     41  C   UNL     1      -9.435 -32.381   6.541  0.00  0.00    +0.000 A 
ATOM     42  C   UNL     1      -8.137 -30.854   5.182  0.00  0.00    +0.000 A 
ATOM     43  C   UNL     1     -10.260 -31.323   6.917  0.00  0.00    +0.000 A 
ATOM     44  C   UNL     1      -8.980 -29.801   5.547  0.00  0.00    +0.000 A 
ATOM     45  C   UNL     1     -10.031 -30.039   6.428  0.00  0.00    +0.000 A 
BRANCH  43  46
ATOM     46  O   UNL     1     -11.262 -31.522   7.823  0.00  0.00    +0.000 OA
ATOM     47  H   UNL     1     -10.873 -31.646   8.705  0.00  0.00    +0.000 HD
ENDBRANCH  43  46
BRANCH  45  48
ATOM     48  O   UNL     1     -10.828 -29.013   6.848  0.00  0.00    +0.000 OA
ATOM     49  H   UNL     1     -10.978 -29.098   7.804  0.00  0.00    +0.000 HD
ENDBRANCH  45  48
ENDBRANCH  32  40
BRANCH  36  50
ATOM     50  O   UNL     1      -4.119 -37.047   5.545  0.00  0.00    +0.000 OA
ATOM     51  H   UNL     1      -3.518 -37.330   4.834  0.00  0.00    +0.000 HD
ENDBRANCH  36  50
BRANCH  39  52
ATOM     52  O   UNL     1      -7.751 -38.704   2.973  0.00  0.00    +0.000 OA
ATOM     53  H   UNL     1      -7.872 -39.488   3.535  0.00  0.00    +0.000 HD
ENDBRANCH  39  52
ENDBRANCH  29  31
ENDBRANCH   2  29
TORSDOF 14
ENDMDL
MODEL 7
REMARK VINA RESULT:      -5.8     16.398     20.184
REMARK  Name = 
REMARK  14 active torsions:
REMARK  status: ('A' for Active; 'I' for Inactive)
REMARK    1  A    between atoms: O_1  and  C_14
REMARK    2  A    between atoms: O_1  and  C_15
REMARK    3  A    between atoms: O_4  and  C_16
REMARK    4  A    between atoms: O_5  and  C_18
REMARK    5  A    between atoms: O_6  and  C_26
REMARK    6  A    between atoms: O_7  and  C_29
REMARK    7  A    between atoms: O_8  and  C_35
REMARK    8  A    between atoms: O_9  and  C_36
REMARK    9  A    between atoms: O_10  and  C_39
REMARK   10  A    between atoms: O_11  and  C_40
REMARK   11  A    between atoms: O_12  and  C_41
REMARK   12  A    between atoms: O_13  and  C_43
REMARK   13  A    between atoms: C_14  and  C_20
REMARK   14  A    between atoms: C_17  and  C_24
REMARK                            x       y       z     vdW  Elec       q    Type
REMARK                         _______ _______ _______ _____ _____    ______ ____
ROOT
ATOM      1  O   UNL     1     -13.969 -21.130   2.231  0.00  0.00    +0.000 OA
ATOM      2  C   UNL     1     -15.110 -20.261   2.219  0.00  0.00    +0.000 C 
ATOM      3  C   UNL     1     -15.909 -20.366   3.554  0.00  0.00    +0.000 C 
ATOM      4  C   UNL     1     -16.306 -21.813   3.827  0.00  0.00    +0.000 C 
ATOM      5  C   UNL     1     -15.142 -22.740   3.647  0.00  0.00    +0.000 A 
ATOM      6  C   UNL     1     -14.061 -22.343   2.855  0.00  0.00    +0.000 A 
ATOM      7  C   UNL     1     -15.111 -24.023   4.215  0.00  0.00    +0.000 A 
ATOM      8  C   UNL     1     -12.975 -23.199   2.654  0.00  0.00    +0.000 A 
ATOM      9  C   UNL     1     -14.043 -24.891   4.003  0.00  0.00    +0.000 A 
ATOM     10  C   UNL     1     -12.977 -24.466   3.224  0.00  0.00    +0.000 A 
ENDROOT
BRANCH   2  11
ATOM     11  C   UNL     1     -16.030 -20.494   1.005  0.00  0.00    +0.000 A 
ATOM     12  C   UNL     1     -17.178 -19.694   0.808  0.00  0.00    +0.000 A 
ATOM     13  C   UNL     1     -15.749 -21.496   0.052  0.00  0.00    +0.000 A 
ATOM     14  C   UNL     1     -18.002 -19.908  -0.292  0.00  0.00    +0.000 A 
ATOM     15  C   UNL     1     -16.591 -21.712  -1.042  0.00  0.00    +0.000 A 
ATOM     16  C   UNL     1     -17.714 -20.921  -1.199  0.00  0.00    +0.000 A 
BRANCH  14  17
ATOM     17  O   UNL     1     -19.111 -19.147  -0.536  0.00  0.00    +0.000 OA
ATOM     18  H   UNL     1     -19.913 -19.700  -0.447  0.00  0.00    +0.000 HD
ENDBRANCH  14  17
BRANCH  16  19
ATOM     19  O   UNL     1     -18.535 -21.129  -2.270  0.00  0.00    +0.000 OA
ATOM     20  H   UNL     1     -18.424 -22.078  -2.481  0.00  0.00    +0.000 HD
ENDBRANCH  16  19
ENDBRANCH   2  11
BRANCH   3  21
ATOM     21  O   UNL     1     -15.141 -19.878   4.691  0.00  0.00    +0.000 OA
ATOM     22  H   UNL     1     -14.207 -19.936   4.405  0.00  0.00    +0.000 HD
ENDBRANCH   3  21
BRANCH   4  23
ATOM     23  O   UNL     1     -16.804 -21.928   5.171  0.00  0.00    +0.000 OA
ATOM     24  H   UNL     1     -16.495 -22.814   5.466  0.00  0.00    +0.000 HD
ENDBRANCH   4  23
BRANCH   7  25
ATOM     25  O   UNL     1     -16.123 -24.476   5.019  0.00  0.00    +0.000 OA
ATOM     26  H   UNL     1     -15.704 -24.973   5.757  0.00  0.00    +0.000 HD
ENDBRANCH   7  25
BRANCH  10  27
ATOM     27  O   UNL     1     -11.901 -25.272   2.992  0.00  0.00    +0.000 OA
ATOM     28  H   UNL     1     -12.220 -26.182   2.867  0.00  0.00    +0.000 HD
ENDBRANCH  10  27
BRANCH   2  29
ATOM     29  O   UNL     1     -14.633 -18.886   2.228  0.00  0.00    +0.000 OA
BRANCH  29  31
ATOM     30  O   UNL     1     -11.787 -17.185   0.574  0.00  0.00    +0.000 OA
ATOM     31  C   UNL     1     -13.244 -18.671   1.912  0.00  0.00    +0.000 C 
ATOM     32  C   UNL     1     -13.136 -17.424   1.000  0.00  0.00    +0.000 C 
ATOM     33  C   UNL     1     -12.412 -18.395   3.169  0.00  0.00    +0.000 C 
ATOM     34  C   UNL     1     -11.114 -17.703   2.857  0.00  0.00    +0.000 A 
ATOM     35  C   UNL     1     -10.878 -17.148   1.596  0.00  0.00    +0.000 A 
ATOM     36  C   UNL     1     -10.114 -17.594   3.831  0.00  0.00    +0.000 A 
ATOM     37  C   UNL     1      -9.656 -16.541   1.299  0.00  0.00    +0.000 A 
ATOM     38  C   UNL     1      -8.897 -16.976   3.552  0.00  0.00    +0.000 A 
ATOM     39  C   UNL     1      -8.677 -16.459   2.282  0.00  0.00    +0.000 A 
BRANCH  32  40
ATOM     40  C   UNL     1     -13.989 -17.584  -0.252  0.00  0.00    +0.000 A 
ATOM     41  C   UNL     1     -13.688 -18.565  -1.210  0.00  0.00    +0.000 A 
ATOM     42  C   UNL     1     -15.143 -16.798  -0.420  0.00  0.00    +0.000 A 
ATOM     43  C   UNL     1     -14.554 -18.779  -2.281  0.00  0.00    +0.000 A 
ATOM     44  C   UNL     1     -15.997 -17.005  -1.506  0.00  0.00    +0.000 A 
ATOM     45  C   UNL     1     -15.705 -18.008  -2.425  0.00  0.00    +0.000 A 
BRANCH  43  46
ATOM     46  O   UNL     1     -14.317 -19.795  -3.163  0.00  0.00    +0.000 OA
ATOM     47  H   UNL     1     -14.759 -19.593  -4.005  0.00  0.00    +0.000 HD
ENDBRANCH  43  46
BRANCH  45  48
ATOM     48  O   UNL     1     -16.558 -18.270  -3.459  0.00  0.00    +0.000 OA
ATOM     49  H   UNL     1     -17.246 -17.584  -3.484  0.00  0.00    +0.000 HD
ENDBRANCH  45  48
ENDBRANCH  32  40
BRANCH  36  50
ATOM     50  O   UNL     1     -10.352 -18.113   5.073  0.00  0.00    +0.000 OA
ATOM     51  H   UNL     1     -10.723 -19.006   4.975  0.00  0.00    +0.000 HD
ENDBRANCH  36  50
BRANCH  39  52
ATOM     52  O   UNL     1      -7.472 -15.866   2.038  0.00  0.00    +0.000 OA
ATOM     53  H   UNL     1      -7.016 -15.726   2.886  0.00  0.00    +0.000 HD
ENDBRANCH  39  52
ENDBRANCH  29  31
ENDBRANCH   2  29
TORSDOF 14
ENDMDL
MODEL 8
REMARK VINA RESULT:      -5.6     18.095     21.975
REMARK  Name = 
REMARK  14 active torsions:
REMARK  status: ('A' for Active; 'I' for Inactive)
REMARK    1  A    between atoms: O_1  and  C_14
REMARK    2  A    between atoms: O_1  and  C_15
REMARK    3  A    between atoms: O_4  and  C_16
REMARK    4  A    between atoms: O_5  and  C_18
REMARK    5  A    between atoms: O_6  and  C_26
REMARK    6  A    between atoms: O_7  and  C_29
REMARK    7  A    between atoms: O_8  and  C_35
REMARK    8  A    between atoms: O_9  and  C_36
REMARK    9  A    between atoms: O_10  and  C_39
REMARK   10  A    between atoms: O_11  and  C_40
REMARK   11  A    between atoms: O_12  and  C_41
REMARK   12  A    between atoms: O_13  and  C_43
REMARK   13  A    between atoms: C_14  and  C_20
REMARK   14  A    between atoms: C_17  and  C_24
REMARK                            x       y       z     vdW  Elec       q    Type
REMARK                         _______ _______ _______ _____ _____    ______ ____
ROOT
ATOM      1  O   UNL     1     -14.935 -16.771  -2.551  0.00  0.00    +0.000 OA
ATOM      2  C   UNL     1     -15.483 -17.826  -1.749  0.00  0.00    +0.000 C 
ATOM      3  C   UNL     1     -16.090 -18.951  -2.640  0.00  0.00    +0.000 C 
ATOM      4  C   UNL     1     -17.128 -18.373  -3.598  0.00  0.00    +0.000 C 
ATOM      5  C   UNL     1     -16.608 -17.150  -4.291  0.00  0.00    +0.000 A 
ATOM      6  C   UNL     1     -15.558 -16.427  -3.718  0.00  0.00    +0.000 A 
ATOM      7  C   UNL     1     -17.166 -16.672  -5.486  0.00  0.00    +0.000 A 
ATOM      8  C   UNL     1     -15.072 -15.271  -4.334  0.00  0.00    +0.000 A 
ATOM      9  C   UNL     1     -16.702 -15.510  -6.097  0.00  0.00    +0.000 A 
ATOM     10  C   UNL     1     -15.650 -14.820  -5.514  0.00  0.00    +0.000 A 
ENDROOT
BRANCH   2  11
ATOM     11  C   UNL     1     -16.512 -17.324  -0.717  0.00  0.00    +0.000 A 
ATOM     12  C   UNL     1     -16.603 -15.949  -0.402  0.00  0.00    +0.000 A 
ATOM     13  C   UNL     1     -17.397 -18.212  -0.071  0.00  0.00    +0.000 A 
ATOM     14  C   UNL     1     -17.536 -15.503   0.528  0.00  0.00    +0.000 A 
ATOM     15  C   UNL     1     -18.321 -17.755   0.874  0.00  0.00    +0.000 A 
ATOM     16  C   UNL     1     -18.377 -16.405   1.169  0.00  0.00    +0.000 A 
BRANCH  14  17
ATOM     17  O   UNL     1     -17.676 -14.182   0.850  0.00  0.00    +0.000 OA
ATOM     18  H   UNL     1     -16.795 -13.790   1.015  0.00  0.00    +0.000 HD
ENDBRANCH  14  17
BRANCH  16  19
ATOM     19  O   UNL     1     -19.282 -15.958   2.088  0.00  0.00    +0.000 OA
ATOM     20  H   UNL     1     -18.844 -16.103   2.951  0.00  0.00    +0.000 HD
ENDBRANCH  16  19
ENDBRANCH   2  11
BRANCH   3  21
ATOM     21  O   UNL     1     -15.073 -19.635  -3.426  0.00  0.00    +0.000 OA
ATOM     22  H   UNL     1     -15.290 -19.424  -4.356  0.00  0.00    +0.000 HD
ENDBRANCH   3  21
BRANCH   4  23
ATOM     23  O   UNL     1     -17.480 -19.364  -4.578  0.00  0.00    +0.000 OA
ATOM     24  H   UNL     1     -17.258 -18.940  -5.437  0.00  0.00    +0.000 HD
ENDBRANCH   4  23
BRANCH   7  25
ATOM     25  O   UNL     1     -18.183 -17.336  -6.119  0.00  0.00    +0.000 OA
ATOM     26  H   UNL     1     -18.887 -16.677  -6.305  0.00  0.00    +0.000 HD
ENDBRANCH   7  25
BRANCH  10  27
ATOM     27  O   UNL     1     -15.150 -13.680  -6.074  0.00  0.00    +0.000 OA
ATOM     28  H   UNL     1     -15.639 -13.502  -6.896  0.00  0.00    +0.000 HD
ENDBRANCH  10  27
BRANCH   2  29
ATOM     29  O   UNL     1     -14.385 -18.499  -1.072  0.00  0.00    +0.000 OA
BRANCH  29  31
ATOM     30  O   UNL     1     -12.532 -18.455   2.137  0.00  0.00    +0.000 OA
ATOM     31  C   UNL     1     -13.913 -17.913   0.157  0.00  0.00    +0.000 C 
ATOM     32  C   UNL     1     -12.985 -18.933   0.863  0.00  0.00    +0.000 C 
ATOM     33  C   UNL     1     -13.093 -16.644  -0.098  0.00  0.00    +0.000 C 
ATOM     34  C   UNL     1     -12.203 -16.294   1.062  0.00  0.00    +0.000 A 
ATOM     35  C   UNL     1     -11.979 -17.204   2.099  0.00  0.00    +0.000 A 
ATOM     36  C   UNL     1     -11.572 -15.045   1.124  0.00  0.00    +0.000 A 
ATOM     37  C   UNL     1     -11.182 -16.860   3.194  0.00  0.00    +0.000 A 
ATOM     38  C   UNL     1     -10.762 -14.696   2.202  0.00  0.00    +0.000 A 
ATOM     39  C   UNL     1     -10.579 -15.608   3.233  0.00  0.00    +0.000 A 
BRANCH  32  40
ATOM     40  C   UNL     1     -13.702 -20.256   1.100  0.00  0.00    +0.000 A 
ATOM     41  C   UNL     1     -13.000 -21.389   1.540  0.00  0.00    +0.000 A 
ATOM     42  C   UNL     1     -15.099 -20.332   0.957  0.00  0.00    +0.000 A 
ATOM     43  C   UNL     1     -13.694 -22.550   1.874  0.00  0.00    +0.000 A 
ATOM     44  C   UNL     1     -15.787 -21.506   1.275  0.00  0.00    +0.000 A 
ATOM     45  C   UNL     1     -15.080 -22.607   1.749  0.00  0.00    +0.000 A 
BRANCH  43  46
ATOM     46  O   UNL     1     -13.028 -23.623   2.394  0.00  0.00    +0.000 OA
ATOM     47  H   UNL     1     -12.803 -23.439   3.321  0.00  0.00    +0.000 HD
ENDBRANCH  43  46
BRANCH  45  48
ATOM     48  O   UNL     1     -15.738 -23.742   2.125  0.00  0.00    +0.000 OA
ATOM     49  H   UNL     1     -16.089 -23.623   3.023  0.00  0.00    +0.000 HD
ENDBRANCH  45  48
ENDBRANCH  32  40
BRANCH  36  50
ATOM     50  O   UNL     1     -11.769 -14.162   0.099  0.00  0.00    +0.000 OA
ATOM     51  H   UNL     1     -11.349 -14.513  -0.704  0.00  0.00    +0.000 HD
ENDBRANCH  36  50
BRANCH  39  52
ATOM     52  O   UNL     1      -9.786 -15.234   4.279  0.00  0.00    +0.000 OA
ATOM     53  H   UNL     1      -9.224 -15.987   4.529  0.00  0.00    +0.000 HD
ENDBRANCH  39  52
ENDBRANCH  29  31
ENDBRANCH   2  29
TORSDOF 14
ENDMDL
MODEL 9
REMARK VINA RESULT:      -5.6     11.187     15.108
REMARK  Name = 
REMARK  14 active torsions:
REMARK  status: ('A' for Active; 'I' for Inactive)
REMARK    1  A    between atoms: O_1  and  C_14
REMARK    2  A    between atoms: O_1  and  C_15
REMARK    3  A    between atoms: O_4  and  C_16
REMARK    4  A    between atoms: O_5  and  C_18
REMARK    5  A    between atoms: O_6  and  C_26
REMARK    6  A    between atoms: O_7  and  C_29
REMARK    7  A    between atoms: O_8  and  C_35
REMARK    8  A    between atoms: O_9  and  C_36
REMARK    9  A    between atoms: O_10  and  C_39
REMARK   10  A    between atoms: O_11  and  C_40
REMARK   11  A    between atoms: O_12  and  C_41
REMARK   12  A    between atoms: O_13  and  C_43
REMARK   13  A    between atoms: C_14  and  C_20
REMARK   14  A    between atoms: C_17  and  C_24
REMARK                            x       y       z     vdW  Elec       q    Type
REMARK                         _______ _______ _______ _____ _____    ______ ____
ROOT
ATOM      1  O   UNL     1       5.370 -29.097   4.740  0.00  0.00    +0.000 OA
ATOM      2  C   UNL     1       5.929 -30.212   4.032  0.00  0.00    +0.000 C 
ATOM      3  C   UNL     1       7.428 -29.960   3.683  0.00  0.00    +0.000 C 
ATOM      4  C   UNL     1       7.582 -28.660   2.899  0.00  0.00    +0.000 C 
ATOM      5  C   UNL     1       6.829 -27.539   3.550  0.00  0.00    +0.000 A 
ATOM      6  C   UNL     1       5.770 -27.831   4.414  0.00  0.00    +0.000 A 
ATOM      7  C   UNL     1       7.121 -26.192   3.291  0.00  0.00    +0.000 A 
ATOM      8  C   UNL     1       5.039 -26.803   5.014  0.00  0.00    +0.000 A 
ATOM      9  C   UNL     1       6.385 -25.160   3.868  0.00  0.00    +0.000 A 
ATOM     10  C   UNL     1       5.348 -25.477   4.732  0.00  0.00    +0.000 A 
ENDROOT
BRANCH   2  11
ATOM     11  C   UNL     1       5.125 -30.590   2.774  0.00  0.00    +0.000 A 
ATOM     12  C   UNL     1       3.825 -30.074   2.569  0.00  0.00    +0.000 A 
ATOM     13  C   UNL     1       5.662 -31.444   1.788  0.00  0.00    +0.000 A 
ATOM     14  C   UNL     1       3.105 -30.418   1.429  0.00  0.00    +0.000 A 
ATOM     15  C   UNL     1       4.925 -31.795   0.653  0.00  0.00    +0.000 A 
ATOM     16  C   UNL     1       3.651 -31.284   0.488  0.00  0.00    +0.000 A 
BRANCH  14  17
ATOM     17  O   UNL     1       1.855 -29.929   1.176  0.00  0.00    +0.000 OA
ATOM     18  H   UNL     1       1.290 -30.052   1.966  0.00  0.00    +0.000 HD
ENDBRANCH  14  17
BRANCH  16  19
ATOM     19  O   UNL     1       2.932 -31.623  -0.623  0.00  0.00    +0.000 OA
ATOM     20  H   UNL     1       3.587 -31.607  -1.350  0.00  0.00    +0.000 HD
ENDBRANCH  16  19
ENDBRANCH   2  11
BRANCH   3  21
ATOM     21  O   UNL     1       8.261 -29.879   4.874  0.00  0.00    +0.000 OA
ATOM     22  H   UNL     1       9.178 -29.966   4.545  0.00  0.00    +0.000 HD
ENDBRANCH   3  21
BRANCH   4  23
ATOM     23  O   UNL     1       8.976 -28.314   2.816  0.00  0.00    +0.000 OA
ATOM     24  H   UNL     1       8.992 -27.527   2.226  0.00  0.00    +0.000 HD
ENDBRANCH   4  23
BRANCH   7  25
ATOM     25  O   UNL     1       8.156 -25.826   2.472  0.00  0.00    +0.000 OA
ATOM     26  H   UNL     1       7.770 -25.308   1.732  0.00  0.00    +0.000 HD
ENDBRANCH   7  25
BRANCH  10  27
ATOM     27  O   UNL     1       4.600 -24.506   5.332  0.00  0.00    +0.000 OA
ATOM     28  H   UNL     1       4.539 -23.748   4.726  0.00  0.00    +0.000 HD
ENDBRANCH  10  27
BRANCH   2  29
ATOM     29  O   UNL     1       5.990 -31.344   4.945  0.00  0.00    +0.000 OA
BRANCH  29  31
ATOM     30  O   UNL     1       3.543 -33.476   6.733  0.00  0.00    +0.000 OA
ATOM     31  C   UNL     1       4.823 -31.600   5.751  0.00  0.00    +0.000 C 
ATOM     32  C   UNL     1       4.725 -33.126   5.999  0.00  0.00    +0.000 C 
ATOM     33  C   UNL     1       4.918 -30.917   7.119  0.00  0.00    +0.000 C 
ATOM     34  C   UNL     1       3.997 -31.536   8.134  0.00  0.00    +0.000 A 
ATOM     35  C   UNL     1       3.370 -32.761   7.886  0.00  0.00    +0.000 A 
ATOM     36  C   UNL     1       3.755 -30.899   9.358  0.00  0.00    +0.000 A 
ATOM     37  C   UNL     1       2.485 -33.313   8.815  0.00  0.00    +0.000 A 
ATOM     38  C   UNL     1       2.888 -31.448  10.300  0.00  0.00    +0.000 A 
ATOM     39  C   UNL     1       2.255 -32.651  10.016  0.00  0.00    +0.000 A 
BRANCH  32  40
ATOM     40  C   UNL     1       4.692 -33.896   4.685  0.00  0.00    +0.000 A 
ATOM     41  C   UNL     1       3.496 -34.044   3.965  0.00  0.00    +0.000 A 
ATOM     42  C   UNL     1       5.885 -34.398   4.136  0.00  0.00    +0.000 A 
ATOM     43  C   UNL     1       3.513 -34.638   2.705  0.00  0.00    +0.000 A 
ATOM     44  C   UNL     1       5.892 -35.010   2.880  0.00  0.00    +0.000 A 
ATOM     45  C   UNL     1       4.705 -35.113   2.162  0.00  0.00    +0.000 A 
BRANCH  43  46
ATOM     46  O   UNL     1       2.370 -34.699   1.959  0.00  0.00    +0.000 OA
ATOM     47  H   UNL     1       2.301 -35.580   1.555  0.00  0.00    +0.000 HD
ENDBRANCH  43  46
BRANCH  45  48
ATOM     48  O   UNL     1       4.699 -35.650   0.906  0.00  0.00    +0.000 OA
ATOM     49  H   UNL     1       5.598 -35.939   0.681  0.00  0.00    +0.000 HD
ENDBRANCH  45  48
ENDBRANCH  32  40
BRANCH  36  50
ATOM     50  O   UNL     1       4.387 -29.714   9.614  0.00  0.00    +0.000 OA
ATOM     51  H   UNL     1       4.470 -29.216   8.783  0.00  0.00    +0.000 HD
ENDBRANCH  36  50
BRANCH  39  52
ATOM     52  O   UNL     1       1.406 -33.159  10.955  0.00  0.00    +0.000 OA
ATOM     53  H   UNL     1       1.062 -32.425  11.494  0.00  0.00    +0.000 HD
ENDBRANCH  39  52
ENDBRANCH  29  31
ENDBRANCH   2  29
TORSDOF 14
ENDMDL
