MODEL 1
REMARK VINA RESULT:      -5.4      0.000      0.000
REMARK  Name = Progesterone.pdbqt.pdb
REMARK  1 active torsions:
REMARK  status: ('A' for Active; 'I' for Inactive)
REMARK    1  A    between atoms: C_7  and  C_21
REMARK                            x       y       z     vdW  Elec       q    Type
REMARK                         _______ _______ _______ _____ _____    ______ ____
ROOT
ATOM      1  O   UNL     1      -6.180 -38.657   4.718  0.00  0.00    +0.000 OA
ATOM      2  C   UNL     1      -3.722 -38.024  -2.505  0.00  0.00    +0.000 C 
ATOM      3  C   UNL     1      -2.625 -36.912  -2.946  0.00  0.00    +0.000 C 
ATOM      4  C   UNL     1      -3.795 -38.563  -1.133  0.00  0.00    +0.000 C 
ATOM      5  C   UNL     1      -3.096 -38.006   0.076  0.00  0.00    +0.000 C 
ATOM      6  C   UNL     1      -3.110 -38.677   1.468  0.00  0.00    +0.000 C 
ATOM      7  C   UNL     1      -3.426 -35.969  -3.794  0.00  0.00    +0.000 C 
ATOM      8  C   UNL     1      -2.150 -36.358  -1.678  0.00  0.00    +0.000 C 
ATOM      9  C   UNL     1      -2.331 -36.857  -0.266  0.00  0.00    +0.000 C 
ATOM     10  C   UNL     1      -4.921 -37.749  -3.236  0.00  0.00    +0.000 C 
ATOM     11  C   UNL     1      -4.680 -39.618  -0.807  0.00  0.00    +0.000 C 
ATOM     12  C   UNL     1      -4.742 -36.468  -4.005  0.00  0.00    +0.000 C 
ATOM     13  C   UNL     1      -4.357 -39.737   1.723  0.00  0.00    +0.000 C 
ATOM     14  C   UNL     1      -1.549 -37.655  -3.772  0.00  0.00    +0.000 C 
ATOM     15  C   UNL     1      -4.978 -40.206   0.539  0.00  0.00    +0.000 C 
ATOM     16  C   UNL     1      -3.326 -37.649   2.540  0.00  0.00    +0.000 C 
ATOM     17  C   UNL     1      -1.792 -39.466   1.682  0.00  0.00    +0.000 C 
ATOM     18  C   UNL     1      -4.324 -37.553   3.716  0.00  0.00    +0.000 C 
ATOM     19  C   UNL     1      -5.114 -39.551   2.783  0.00  0.00    +0.000 C 
ATOM     20  C   UNL     1      -5.311 -38.603   3.870  0.00  0.00    +0.000 C 
ENDROOT
BRANCH   7  21
ATOM     21  C   UNL     1      -2.904 -34.746  -4.354  0.00  0.00    +0.000 C 
ATOM     22  O   UNL     1      -2.425 -33.827  -3.712  0.00  0.00    +0.000 OA
ATOM     23  C   UNL     1      -2.794 -34.481  -5.819  0.00  0.00    +0.000 C 
ENDBRANCH   7  21
TORSDOF 1
ENDMDL
MODEL 2
REMARK VINA RESULT:      -5.2     17.897     20.725
REMARK  Name = Progesterone.pdbqt.pdb
REMARK  1 active torsions:
REMARK  status: ('A' for Active; 'I' for Inactive)
REMARK    1  A    between atoms: C_7  and  C_21
REMARK                            x       y       z     vdW  Elec       q    Type
REMARK                         _______ _______ _______ _____ _____    ______ ____
ROOT
ATOM      1  O   UNL     1      -4.772 -12.574  -0.353  0.00  0.00    +0.000 OA
ATOM      2  C   UNL     1      -0.856 -19.148  -0.101  0.00  0.00    +0.000 C 
ATOM      3  C   UNL     1      -0.777 -20.052   1.246  0.00  0.00    +0.000 C 
ATOM      4  C   UNL     1      -1.991 -18.248  -0.385  0.00  0.00    +0.000 C 
ATOM      5  C   UNL     1      -3.057 -17.833   0.589  0.00  0.00    +0.000 C 
ATOM      6  C   UNL     1      -4.291 -16.984   0.210  0.00  0.00    +0.000 C 
ATOM      7  C   UNL     1       0.656 -19.905   1.665  0.00  0.00    +0.000 C 
ATOM      8  C   UNL     1      -1.755 -19.437   2.144  0.00  0.00    +0.000 C 
ATOM      9  C   UNL     1      -2.839 -18.426   1.863  0.00  0.00    +0.000 C 
ATOM     10  C   UNL     1       0.480 -18.745  -0.419  0.00  0.00    +0.000 C 
ATOM     11  C   UNL     1      -2.091 -17.565  -1.620  0.00  0.00    +0.000 C 
ATOM     12  C   UNL     1       1.401 -19.190   0.686  0.00  0.00    +0.000 C 
ATOM     13  C   UNL     1      -4.128 -16.091  -1.177  0.00  0.00    +0.000 C 
ATOM     14  C   UNL     1      -1.107 -21.503   0.824  0.00  0.00    +0.000 C 
ATOM     15  C   UNL     1      -3.092 -16.531  -2.037  0.00  0.00    +0.000 C 
ATOM     16  C   UNL     1      -4.541 -15.933   1.252  0.00  0.00    +0.000 C 
ATOM     17  C   UNL     1      -5.523 -17.906   0.014  0.00  0.00    +0.000 C 
ATOM     18  C   UNL     1      -4.749 -14.404   1.171  0.00  0.00    +0.000 C 
ATOM     19  C   UNL     1      -4.363 -14.798  -1.105  0.00  0.00    +0.000 C 
ATOM     20  C   UNL     1      -4.665 -13.764  -0.127  0.00  0.00    +0.000 C 
ENDROOT
BRANCH   7  21
ATOM     21  C   UNL     1       1.202 -20.461   2.878  0.00  0.00    +0.000 C 
ATOM     22  O   UNL     1       1.014 -21.598   3.279  0.00  0.00    +0.000 OA
ATOM     23  C   UNL     1       2.159 -19.739   3.769  0.00  0.00    +0.000 C 
ENDBRANCH   7  21
TORSDOF 1
ENDMDL
MODEL 3
REMARK VINA RESULT:      -5.0     21.887     26.637
REMARK  Name = Progesterone.pdbqt.pdb
REMARK  1 active torsions:
REMARK  status: ('A' for Active; 'I' for Inactive)
REMARK    1  A    between atoms: C_7  and  C_21
REMARK                            x       y       z     vdW  Elec       q    Type
REMARK                         _______ _______ _______ _____ _____    ______ ____
ROOT
ATOM      1  O   UNL     1      -4.882 -10.911 -13.908  0.00  0.00    +0.000 OA
ATOM      2  C   UNL     1       0.511 -16.284 -14.723  0.00  0.00    +0.000 C 
ATOM      3  C   UNL     1       0.261 -17.827 -14.286  0.00  0.00    +0.000 C 
ATOM      4  C   UNL     1      -0.590 -15.386 -15.125  0.00  0.00    +0.000 C 
ATOM      5  C   UNL     1      -2.059 -15.649 -14.939  0.00  0.00    +0.000 C 
ATOM      6  C   UNL     1      -3.176 -14.732 -15.484  0.00  0.00    +0.000 C 
ATOM      7  C   UNL     1       1.162 -17.988 -13.097  0.00  0.00    +0.000 C 
ATOM      8  C   UNL     1      -1.171 -17.887 -13.995  0.00  0.00    +0.000 C 
ATOM      9  C   UNL     1      -2.273 -16.905 -14.308  0.00  0.00    +0.000 C 
ATOM     10  C   UNL     1       1.591 -15.787 -13.926  0.00  0.00    +0.000 C 
ATOM     11  C   UNL     1      -0.331 -14.086 -15.616  0.00  0.00    +0.000 C 
ATOM     12  C   UNL     1       1.968 -16.830 -12.908  0.00  0.00    +0.000 C 
ATOM     13  C   UNL     1      -2.709 -13.175 -15.809  0.00  0.00    +0.000 C 
ATOM     14  C   UNL     1       0.719 -18.703 -15.476  0.00  0.00    +0.000 C 
ATOM     15  C   UNL     1      -1.310 -13.002 -15.954  0.00  0.00    +0.000 C 
ATOM     16  C   UNL     1      -4.248 -14.546 -14.451  0.00  0.00    +0.000 C 
ATOM     17  C   UNL     1      -3.741 -15.321 -16.804  0.00  0.00    +0.000 C 
ATOM     18  C   UNL     1      -4.927 -13.291 -13.857  0.00  0.00    +0.000 C 
ATOM     19  C   UNL     1      -3.397 -12.200 -15.254  0.00  0.00    +0.000 C 
ATOM     20  C   UNL     1      -4.475 -11.987 -14.301  0.00  0.00    +0.000 C 
ENDROOT
BRANCH   7  21
ATOM     21  C   UNL     1       1.226 -19.182 -12.290  0.00  0.00    +0.000 C 
ATOM     22  O   UNL     1       1.017 -19.232 -11.090  0.00  0.00    +0.000 OA
ATOM     23  C   UNL     1       1.466 -20.549 -12.841  0.00  0.00    +0.000 C 
ENDBRANCH   7  21
TORSDOF 1
ENDMDL
MODEL 4
REMARK VINA RESULT:      -4.9      7.842     11.482
REMARK  Name = Progesterone.pdbqt.pdb
REMARK  1 active torsions:
REMARK  status: ('A' for Active; 'I' for Inactive)
REMARK    1  A    between atoms: C_7  and  C_21
REMARK                            x       y       z     vdW  Elec       q    Type
REMARK                         _______ _______ _______ _____ _____    ______ ____
ROOT
ATOM      1  O   UNL     1       1.255 -38.145 -14.674  0.00  0.00    +0.000 OA
ATOM      2  C   UNL     1      -1.924 -34.205  -8.931  0.00  0.00    +0.000 C 
ATOM      3  C   UNL     1      -3.168 -34.793  -8.069  0.00  0.00    +0.000 C 
ATOM      4  C   UNL     1      -0.944 -35.080  -9.605  0.00  0.00    +0.000 C 
ATOM      5  C   UNL     1      -1.085 -36.560  -9.827  0.00  0.00    +0.000 C 
ATOM      6  C   UNL     1       0.022 -37.451 -10.433  0.00  0.00    +0.000 C 
ATOM      7  C   UNL     1      -4.307 -33.907  -8.479  0.00  0.00    +0.000 C 
ATOM      8  C   UNL     1      -3.274 -36.186  -8.503  0.00  0.00    +0.000 C 
ATOM      9  C   UNL     1      -2.314 -37.038  -9.295  0.00  0.00    +0.000 C 
ATOM     10  C   UNL     1      -2.378 -33.007  -9.568  0.00  0.00    +0.000 C 
ATOM     11  C   UNL     1       0.196 -34.543 -10.246  0.00  0.00    +0.000 C 
ATOM     12  C   UNL     1      -3.852 -32.844  -9.310  0.00  0.00    +0.000 C 
ATOM     13  C   UNL     1       1.160 -36.646 -11.327  0.00  0.00    +0.000 C 
ATOM     14  C   UNL     1      -2.802 -34.604  -6.578  0.00  0.00    +0.000 C 
ATOM     15  C   UNL     1       1.223 -35.253 -11.076  0.00  0.00    +0.000 C 
ATOM     16  C   UNL     1      -0.566 -38.407 -11.430  0.00  0.00    +0.000 C 
ATOM     17  C   UNL     1       0.777 -38.193  -9.298  0.00  0.00    +0.000 C 
ATOM     18  C   UNL     1      -0.208 -38.746 -12.894  0.00  0.00    +0.000 C 
ATOM     19  C   UNL     1       1.383 -37.062 -12.556  0.00  0.00    +0.000 C 
ATOM     20  C   UNL     1       0.875 -38.019 -13.527  0.00  0.00    +0.000 C 
ENDROOT
BRANCH   7  21
ATOM     21  C   UNL     1      -5.670 -34.093  -8.044  0.00  0.00    +0.000 C 
ATOM     22  O   UNL     1      -6.551 -34.627  -8.696  0.00  0.00    +0.000 OA
ATOM     23  C   UNL     1      -6.165 -33.736  -6.681  0.00  0.00    +0.000 C 
ENDBRANCH   7  21
TORSDOF 1
ENDMDL
MODEL 5
REMARK VINA RESULT:      -4.9     11.329     14.177
REMARK  Name = Progesterone.pdbqt.pdb
REMARK  1 active torsions:
REMARK  status: ('A' for Active; 'I' for Inactive)
REMARK    1  A    between atoms: C_7  and  C_21
REMARK                            x       y       z     vdW  Elec       q    Type
REMARK                         _______ _______ _______ _____ _____    ______ ____
ROOT
ATOM      1  O   UNL     1      -2.423 -28.203   9.952  0.00  0.00    +0.000 OA
ATOM      2  C   UNL     1      -4.919 -35.330  11.216  0.00  0.00    +0.000 C 
ATOM      3  C   UNL     1      -6.425 -35.634  11.745  0.00  0.00    +0.000 C 
ATOM      4  C   UNL     1      -4.582 -34.122  10.437  0.00  0.00    +0.000 C 
ATOM      5  C   UNL     1      -5.458 -32.913  10.255  0.00  0.00    +0.000 C 
ATOM      6  C   UNL     1      -5.108 -31.725   9.332  0.00  0.00    +0.000 C 
ATOM      7  C   UNL     1      -6.195 -36.134  13.140  0.00  0.00    +0.000 C 
ATOM      8  C   UNL     1      -7.102 -34.341  11.650  0.00  0.00    +0.000 C 
ATOM      9  C   UNL     1      -6.691 -33.072  10.945  0.00  0.00    +0.000 C 
ATOM     10  C   UNL     1      -4.014 -35.822  12.209  0.00  0.00    +0.000 C 
ATOM     11  C   UNL     1      -3.292 -33.943   9.887  0.00  0.00    +0.000 C 
ATOM     12  C   UNL     1      -4.804 -36.290  13.402  0.00  0.00    +0.000 C 
ATOM     13  C   UNL     1      -3.499 -31.570   8.967  0.00  0.00    +0.000 C 
ATOM     14  C   UNL     1      -7.001 -36.737  10.827  0.00  0.00    +0.000 C 
ATOM     15  C   UNL     1      -2.735 -32.745   9.180  0.00  0.00    +0.000 C 
ATOM     16  C   UNL     1      -5.418 -30.426  10.015  0.00  0.00    +0.000 C 
ATOM     17  C   UNL     1      -5.867 -31.865   7.986  0.00  0.00    +0.000 C 
ATOM     18  C   UNL     1      -4.589 -29.145  10.260  0.00  0.00    +0.000 C 
ATOM     19  C   UNL     1      -2.925 -30.410   9.204  0.00  0.00    +0.000 C 
ATOM     20  C   UNL     1      -3.212 -29.117   9.807  0.00  0.00    +0.000 C 
ENDROOT
BRANCH   7  21
ATOM     21  C   UNL     1      -7.253 -36.455  14.066  0.00  0.00    +0.000 C 
ATOM     22  O   UNL     1      -7.808 -37.537  14.153  0.00  0.00    +0.000 OA
ATOM     23  C   UNL     1      -7.752 -35.520  15.118  0.00  0.00    +0.000 C 
ENDBRANCH   7  21
TORSDOF 1
ENDMDL
MODEL 6
REMARK VINA RESULT:      -4.8     22.841     25.500
REMARK  Name = Progesterone.pdbqt.pdb
REMARK  1 active torsions:
REMARK  status: ('A' for Active; 'I' for Inactive)
REMARK    1  A    between atoms: C_7  and  C_21
REMARK                            x       y       z     vdW  Elec       q    Type
REMARK                         _______ _______ _______ _____ _____    ______ ____
ROOT
ATOM      1  O   UNL     1      -4.189  -8.212   0.681  0.00  0.00    +0.000 OA
ATOM      2  C   UNL     1      -7.031 -15.086   2.491  0.00  0.00    +0.000 C 
ATOM      3  C   UNL     1      -8.597 -15.455   2.273  0.00  0.00    +0.000 C 
ATOM      4  C   UNL     1      -6.335 -14.071   1.676  0.00  0.00    +0.000 C 
ATOM      5  C   UNL     1      -6.987 -13.075   0.758  0.00  0.00    +0.000 C 
ATOM      6  C   UNL     1      -6.207 -12.111  -0.164  0.00  0.00    +0.000 C 
ATOM      7  C   UNL     1      -9.115 -15.563   3.676  0.00  0.00    +0.000 C 
ATOM      8  C   UNL     1      -9.122 -14.329   1.500  0.00  0.00    +0.000 C 
ATOM      9  C   UNL     1      -8.400 -13.227   0.766  0.00  0.00    +0.000 C 
ATOM     10  C   UNL     1      -6.762 -15.193   3.893  0.00  0.00    +0.000 C 
ATOM     11  C   UNL     1      -4.943 -13.857   1.806  0.00  0.00    +0.000 C 
ATOM     12  C   UNL     1      -8.054 -15.458   4.619  0.00  0.00    +0.000 C 
ATOM     13  C   UNL     1      -4.635 -11.832   0.282  0.00  0.00    +0.000 C 
ATOM     14  C   UNL     1      -8.633 -16.817   1.541  0.00  0.00    +0.000 C 
ATOM     15  C   UNL     1      -4.095 -12.802   1.161  0.00  0.00    +0.000 C 
ATOM     16  C   UNL     1      -6.812 -10.739  -0.117  0.00  0.00    +0.000 C 
ATOM     17  C   UNL     1      -6.174 -12.678  -1.608  0.00  0.00    +0.000 C 
ATOM     18  C   UNL     1      -6.215  -9.336   0.135  0.00  0.00    +0.000 C 
ATOM     19  C   UNL     1      -4.254 -10.581   0.435  0.00  0.00    +0.000 C 
ATOM     20  C   UNL     1      -4.799  -9.232   0.430  0.00  0.00    +0.000 C 
ENDROOT
BRANCH   7  21
ATOM     21  C   UNL     1     -10.500 -15.790   4.010  0.00  0.00    +0.000 C 
ATOM     22  O   UNL     1     -11.024 -16.884   4.130  0.00  0.00    +0.000 OA
ATOM     23  C   UNL     1     -11.464 -14.702   4.349  0.00  0.00    +0.000 C 
ENDBRANCH   7  21
TORSDOF 1
ENDMDL
MODEL 7
REMARK VINA RESULT:      -4.6     23.763     28.104
REMARK  Name = Progesterone.pdbqt.pdb
REMARK  1 active torsions:
REMARK  status: ('A' for Active; 'I' for Inactive)
REMARK    1  A    between atoms: C_7  and  C_21
REMARK                            x       y       z     vdW  Elec       q    Type
REMARK                         _______ _______ _______ _____ _____    ______ ____
ROOT
ATOM      1  O   UNL     1      -5.376  -8.854 -12.322  0.00  0.00    +0.000 OA
ATOM      2  C   UNL     1      -1.676 -14.582 -15.803  0.00  0.00    +0.000 C 
ATOM      3  C   UNL     1      -1.901 -16.134 -15.382  0.00  0.00    +0.000 C 
ATOM      4  C   UNL     1      -2.712 -13.550 -15.607  0.00  0.00    +0.000 C 
ATOM      5  C   UNL     1      -3.961 -13.695 -14.783  0.00  0.00    +0.000 C 
ATOM      6  C   UNL     1      -5.074 -12.626 -14.705  0.00  0.00    +0.000 C 
ATOM      7  C   UNL     1      -0.593 -16.503 -14.749  0.00  0.00    +0.000 C 
ATOM      8  C   UNL     1      -3.044 -16.092 -14.470  0.00  0.00    +0.000 C 
ATOM      9  C   UNL     1      -4.031 -14.986 -14.191  0.00  0.00    +0.000 C 
ATOM     10  C   UNL     1      -0.298 -14.275 -15.565  0.00  0.00    +0.000 C 
ATOM     11  C   UNL     1      -2.534 -12.233 -16.093  0.00  0.00    +0.000 C 
ATOM     12  C   UNL     1       0.356 -15.451 -14.890  0.00  0.00    +0.000 C 
ATOM     13  C   UNL     1      -4.604 -11.093 -15.125  0.00  0.00    +0.000 C 
ATOM     14  C   UNL     1      -2.146 -16.917 -16.694  0.00  0.00    +0.000 C 
ATOM     15  C   UNL     1      -3.410 -11.035 -15.886  0.00  0.00    +0.000 C 
ATOM     16  C   UNL     1      -5.533 -12.453 -13.287  0.00  0.00    +0.000 C 
ATOM     17  C   UNL     1      -6.243 -13.016 -15.648  0.00  0.00    +0.000 C 
ATOM     18  C   UNL     1      -5.703 -11.212 -12.383  0.00  0.00    +0.000 C 
ATOM     19  C   UNL     1      -4.836 -10.123 -14.266  0.00  0.00    +0.000 C 
ATOM     20  C   UNL     1      -5.333  -9.915 -12.914  0.00  0.00    +0.000 C 
ENDROOT
BRANCH   7  21
ATOM     21  C   UNL     1      -0.329 -17.777 -14.126  0.00  0.00    +0.000 C 
ATOM     22  O   UNL     1      -0.506 -18.866 -14.647  0.00  0.00    +0.000 OA
ATOM     23  C   UNL     1       0.291 -17.932 -12.777  0.00  0.00    +0.000 C 
ENDBRANCH   7  21
TORSDOF 1
ENDMDL
MODEL 8
REMARK VINA RESULT:      -4.5     20.807     22.232
REMARK  Name = Progesterone.pdbqt.pdb
REMARK  1 active torsions:
REMARK  status: ('A' for Active; 'I' for Inactive)
REMARK    1  A    between atoms: C_7  and  C_21
REMARK                            x       y       z     vdW  Elec       q    Type
REMARK                         _______ _______ _______ _____ _____    ______ ____
ROOT
ATOM      1  O   UNL     1     -10.988 -15.951   7.623  0.00  0.00    +0.000 OA
ATOM      2  C   UNL     1     -13.126 -19.199   1.027  0.00  0.00    +0.000 C 
ATOM      3  C   UNL     1     -13.385 -18.326  -0.318  0.00  0.00    +0.000 C 
ATOM      4  C   UNL     1     -12.205 -18.757   2.093  0.00  0.00    +0.000 C 
ATOM      5  C   UNL     1     -11.607 -17.384   2.233  0.00  0.00    +0.000 C 
ATOM      6  C   UNL     1     -10.555 -17.006   3.299  0.00  0.00    +0.000 C 
ATOM      7  C   UNL     1     -14.869 -18.432  -0.505  0.00  0.00    +0.000 C 
ATOM      8  C   UNL     1     -12.894 -16.991   0.025  0.00  0.00    +0.000 C 
ATOM      9  C   UNL     1     -12.047 -16.530   1.185  0.00  0.00    +0.000 C 
ATOM     10  C   UNL     1     -14.362 -19.837   1.362  0.00  0.00    +0.000 C 
ATOM     11  C   UNL     1     -11.907 -19.592   3.195  0.00  0.00    +0.000 C 
ATOM     12  C   UNL     1     -15.437 -19.340   0.433  0.00  0.00    +0.000 C 
ATOM     13  C   UNL     1     -10.504 -18.004   4.620  0.00  0.00    +0.000 C 
ATOM     14  C   UNL     1     -12.610 -19.030  -1.456  0.00  0.00    +0.000 C 
ATOM     15  C   UNL     1     -11.102 -19.273   4.418  0.00  0.00    +0.000 C 
ATOM     16  C   UNL     1     -10.883 -15.673   3.905  0.00  0.00    +0.000 C 
ATOM     17  C   UNL     1      -9.138 -17.019   2.666  0.00  0.00    +0.000 C 
ATOM     18  C   UNL     1     -11.030 -15.192   5.366  0.00  0.00    +0.000 C 
ATOM     19  C   UNL     1     -10.615 -17.453   5.811  0.00  0.00    +0.000 C 
ATOM     20  C   UNL     1     -10.872 -16.162   6.431  0.00  0.00    +0.000 C 
ENDROOT
BRANCH   7  21
ATOM     21  C   UNL     1     -15.603 -17.738  -1.534  0.00  0.00    +0.000 C 
ATOM     22  O   UNL     1     -15.590 -18.019  -2.720  0.00  0.00    +0.000 OA
ATOM     23  C   UNL     1     -16.564 -16.626  -1.266  0.00  0.00    +0.000 C 
ENDBRANCH   7  21
TORSDOF 1
ENDMDL
MODEL 9
REMARK VINA RESULT:      -4.4     21.446     22.911
REMARK  Name = Progesterone.pdbqt.pdb
REMARK  1 active torsions:
REMARK  status: ('A' for Active; 'I' for Inactive)
REMARK    1  A    between atoms: C_7  and  C_21
REMARK                            x       y       z     vdW  Elec       q    Type
REMARK                         _______ _______ _______ _____ _____    ______ ____
ROOT
ATOM      1  O   UNL     1      -7.380 -14.589   6.357  0.00  0.00    +0.000 OA
ATOM      2  C   UNL     1      -4.641 -14.107  -0.776  0.00  0.00    +0.000 C 
ATOM      3  C   UNL     1      -3.611 -15.208  -1.379  0.00  0.00    +0.000 C 
ATOM      4  C   UNL     1      -5.605 -14.427   0.295  0.00  0.00    +0.000 C 
ATOM      5  C   UNL     1      -5.605 -15.667   1.145  0.00  0.00    +0.000 C 
ATOM      6  C   UNL     1      -6.707 -16.011   2.171  0.00  0.00    +0.000 C 
ATOM      7  C   UNL     1      -2.330 -14.437  -1.501  0.00  0.00    +0.000 C 
ATOM      8  C   UNL     1      -3.603 -16.273  -0.376  0.00  0.00    +0.000 C 
ATOM      9  C   UNL     1      -4.529 -16.526   0.788  0.00  0.00    +0.000 C 
ATOM     10  C   UNL     1      -3.964 -12.846  -0.782  0.00  0.00    +0.000 C 
ATOM     11  C   UNL     1      -6.571 -13.484   0.715  0.00  0.00    +0.000 C 
ATOM     12  C   UNL     1      -2.534 -13.060  -1.202  0.00  0.00    +0.000 C 
ATOM     13  C   UNL     1      -7.603 -14.720   2.697  0.00  0.00    +0.000 C 
ATOM     14  C   UNL     1      -4.166 -15.622  -2.761  0.00  0.00    +0.000 C 
ATOM     15  C   UNL     1      -7.541 -13.583   1.854  0.00  0.00    +0.000 C 
ATOM     16  C   UNL     1      -6.094 -16.526   3.441  0.00  0.00    +0.000 C 
ATOM     17  C   UNL     1      -7.699 -17.031   1.554  0.00  0.00    +0.000 C 
ATOM     18  C   UNL     1      -6.271 -16.135   4.925  0.00  0.00    +0.000 C 
ATOM     19  C   UNL     1      -7.690 -14.521   3.995  0.00  0.00    +0.000 C 
ATOM     20  C   UNL     1      -7.160 -15.036   5.249  0.00  0.00    +0.000 C 
ENDROOT
BRANCH   7  21
ATOM     21  C   UNL     1      -1.076 -15.018  -1.914  0.00  0.00    +0.000 C 
ATOM     22  O   UNL     1      -0.729 -15.195  -3.070  0.00  0.00    +0.000 OA
ATOM     23  C   UNL     1       0.018 -15.397  -0.971  0.00  0.00    +0.000 C 
ENDBRANCH   7  21
TORSDOF 1
ENDMDL
