REMARK  Name = Progesterone.pdbqt.pdb
REMARK  1 active torsions:
REMARK  status: ('A' for Active; 'I' for Inactive)
REMARK    1  A    between atoms: C_7  and  C_21
REMARK                            x       y       z     vdW  Elec       q    Type
REMARK                         _______ _______ _______ _____ _____    ______ ____
ROOT
ATOM      1  O   UNL     1      -5.651  -0.091   2.059  0.00  0.00    +0.000 OA
ATOM      2  C   UNL     1       1.473   1.144  -0.459  0.00  0.00    +0.000 C 
ATOM      3  C   UNL     1       2.538  -0.066  -0.657  0.00  0.00    +0.000 C 
ATOM      4  C   UNL     1       0.014   0.937  -0.545  0.00  0.00    +0.000 C 
ATOM      5  C   UNL     1      -0.693  -0.390  -0.551  0.00  0.00    +0.000 C 
ATOM      6  C   UNL     1      -2.214  -0.557  -0.763  0.00  0.00    +0.000 C 
ATOM      7  C   UNL     1       3.543   0.192   0.426  0.00  0.00    +0.000 C 
ATOM      8  C   UNL     1       1.735  -1.277  -0.486  0.00  0.00    +0.000 C 
ATOM      9  C   UNL     1       0.238  -1.461  -0.459  0.00  0.00    +0.000 C 
ATOM     10  C   UNL     1       2.018   2.031   0.523  0.00  0.00    +0.000 C 
ATOM     11  C   UNL     1      -0.884   2.028  -0.489  0.00  0.00    +0.000 C 
ATOM     12  C   UNL     1       3.277   1.426   1.084  0.00  0.00    +0.000 C 
ATOM     13  C   UNL     1      -3.119   0.794  -0.445  0.00  0.00    +0.000 C 
ATOM     14  C   UNL     1       3.152   0.112  -2.065  0.00  0.00    +0.000 C 
ATOM     15  C   UNL     1      -2.382   2.004  -0.439  0.00  0.00    +0.000 C 
ATOM     16  C   UNL     1      -2.768  -1.561   0.205  0.00  0.00    +0.000 C 
ATOM     17  C   UNL     1      -2.498  -0.957  -2.235  0.00  0.00    +0.000 C 
ATOM     18  C   UNL     1      -3.953  -1.520   1.196  0.00  0.00    +0.000 C 
ATOM     19  C   UNL     1      -4.119   0.677   0.403  0.00  0.00    +0.000 C 
ATOM     20  C   UNL     1      -4.717  -0.293   1.308  0.00  0.00    +0.000 C 
ENDROOT
BRANCH   7  21
ATOM     21  C   UNL     1       4.654  -0.680   0.719  0.00  0.00    +0.000 C 
ATOM     22  O   UNL     1       5.555  -0.433   1.503  0.00  0.00    +0.000 OA
ATOM     23  C   UNL     1       4.800  -2.059   0.165  0.00  0.00    +0.000 C 
ENDBRANCH   7  21
TORSDOF 1
