MODEL 1
REMARK VINA RESULT:      -6.4      0.000      0.000
REMARK  Name = 
REMARK  11 active torsions:
REMARK  status: ('A' for Active; 'I' for Inactive)
REMARK    1  A    between atoms: O_2  and  C_16
REMARK    2  A    between atoms: O_2  and  C_18
REMARK    3  A    between atoms: O_3  and  C_12
REMARK    4  A    between atoms: O_4  and  C_13
REMARK    5  A    between atoms: O_5  and  C_14
REMARK    6  A    between atoms: O_8  and  C_24
REMARK    7  A    between atoms: O_9  and  C_29
REMARK    8  A    between atoms: O_10  and  C_30
REMARK    9  A    between atoms: O_11  and  C_32
REMARK   10  A    between atoms: C_15  and  C_17
REMARK   11  A    between atoms: C_19  and  C_23
REMARK                            x       y       z     vdW  Elec       q    Type
REMARK                         _______ _______ _______ _____ _____    ______ ____
ROOT
ATOM      1  O   UNL     1      -7.110 -32.904  -4.229  0.00  0.00    +0.000 OA
ATOM      2  O   UNL     1      -6.243 -36.223  -2.062  0.00  0.00    +0.000 OA
ATOM      3  C   UNL     1      -6.114 -35.103  -4.137  0.00  0.00    +0.000 A 
ATOM      4  C   UNL     1      -6.345 -33.928  -4.755  0.00  0.00    +0.000 A 
ATOM      5  C   UNL     1      -6.618 -35.277  -2.743  0.00  0.00    +0.000 A 
ATOM      6  C   UNL     1      -7.547 -34.239  -2.239  0.00  0.00    +0.000 A 
ATOM      7  C   UNL     1      -7.727 -33.098  -3.021  0.00  0.00    +0.000 A 
ATOM      8  C   UNL     1      -8.232 -34.345  -1.021  0.00  0.00    +0.000 A 
ATOM      9  C   UNL     1      -8.569 -32.069  -2.593  0.00  0.00    +0.000 A 
ATOM     10  C   UNL     1      -9.079 -33.319  -0.588  0.00  0.00    +0.000 A 
ATOM     11  C   UNL     1      -9.237 -32.187  -1.382  0.00  0.00    +0.000 A 
ENDROOT
BRANCH   4  12
ATOM     12  C   UNL     1      -5.819 -33.614  -6.100  0.00  0.00    +0.000 A 
ATOM     13  C   UNL     1      -4.882 -32.577  -6.256  0.00  0.00    +0.000 A 
ATOM     14  C   UNL     1      -6.232 -34.340  -7.232  0.00  0.00    +0.000 A 
ATOM     15  C   UNL     1      -4.401 -32.268  -7.523  0.00  0.00    +0.000 A 
ATOM     16  C   UNL     1      -5.746 -34.019  -8.502  0.00  0.00    +0.000 A 
ATOM     17  C   UNL     1      -4.838 -32.983  -8.635  0.00  0.00    +0.000 A 
BRANCH  15  18
ATOM     18  O   UNL     1      -3.497 -31.263  -7.729  0.00  0.00    +0.000 OA
ATOM     19  H   UNL     1      -3.876 -30.434  -7.390  0.00  0.00    +0.000 HD
ENDBRANCH  15  18
BRANCH  17  20
ATOM     20  O   UNL     1      -4.367 -32.667  -9.877  0.00  0.00    +0.000 OA
ATOM     21  H   UNL     1      -4.944 -33.158 -10.496  0.00  0.00    +0.000 HD
ENDBRANCH  17  20
ENDBRANCH   4  12
BRANCH   8  22
ATOM     22  O   UNL     1      -8.104 -35.460  -0.243  0.00  0.00    +0.000 OA
ATOM     23  H   UNL     1      -8.562 -36.218  -0.638  0.00  0.00    +0.000 HD
ENDBRANCH   8  22
BRANCH  11  24
ATOM     24  O   UNL     1     -10.049 -31.160  -1.006  0.00  0.00    +0.000 OA
ATOM     25  H   UNL     1      -9.670 -30.319  -1.311  0.00  0.00    +0.000 HD
ENDBRANCH  11  24
BRANCH   3  26
ATOM     26  O   UNL     1      -5.345 -36.122  -4.676  0.00  0.00    +0.000 OA
BRANCH  26  32
ATOM     27  O   UNL     1      -3.231 -35.440  -5.572  0.00  0.00    +0.000 OA
ATOM     28  C   UNL     1      -3.193 -38.264  -4.991  0.00  0.00    +0.000 C 
ATOM     29  C   UNL     1      -2.448 -37.675  -6.193  0.00  0.00    +0.000 C 
ATOM     30  C   UNL     1      -3.340 -37.228  -3.875  0.00  0.00    +0.000 C 
ATOM     31  C   UNL     1      -3.154 -36.392  -6.646  0.00  0.00    +0.000 C 
ATOM     32  C   UNL     1      -3.946 -35.919  -4.430  0.00  0.00    +0.000 C 
ATOM     33  C   UNL     1      -2.414 -35.718  -7.796  0.00  0.00    +0.000 C 
BRANCH  28  34
ATOM     34  O   UNL     1      -2.455 -39.404  -4.510  0.00  0.00    +0.000 OA
ATOM     35  H   UNL     1      -2.703 -40.136  -5.114  0.00  0.00    +0.000 HD
ENDBRANCH  28  34
BRANCH  29  36
ATOM     36  O   UNL     1      -2.406 -38.651  -7.239  0.00  0.00    +0.000 OA
ATOM     37  H   UNL     1      -2.361 -38.138  -8.071  0.00  0.00    +0.000 HD
ENDBRANCH  29  36
BRANCH  30  38
ATOM     38  O   UNL     1      -2.030 -37.022  -3.303  0.00  0.00    +0.000 OA
ATOM     39  H   UNL     1      -2.009 -36.114  -2.948  0.00  0.00    +0.000 HD
ENDBRANCH  30  38
ENDBRANCH  26  32
ENDBRANCH   3  26
TORSDOF 10
ENDMDL
MODEL 2
REMARK VINA RESULT:      -5.9     18.149     20.780
REMARK  Name = 
REMARK  11 active torsions:
REMARK  status: ('A' for Active; 'I' for Inactive)
REMARK    1  A    between atoms: O_2  and  C_16
REMARK    2  A    between atoms: O_2  and  C_18
REMARK    3  A    between atoms: O_3  and  C_12
REMARK    4  A    between atoms: O_4  and  C_13
REMARK    5  A    between atoms: O_5  and  C_14
REMARK    6  A    between atoms: O_8  and  C_24
REMARK    7  A    between atoms: O_9  and  C_29
REMARK    8  A    between atoms: O_10  and  C_30
REMARK    9  A    between atoms: O_11  and  C_32
REMARK   10  A    between atoms: C_15  and  C_17
REMARK   11  A    between atoms: C_19  and  C_23
REMARK                            x       y       z     vdW  Elec       q    Type
REMARK                         _______ _______ _______ _____ _____    ______ ____
ROOT
ATOM      1  O   UNL     1      -0.119 -20.248 -15.056  0.00  0.00    +0.000 OA
ATOM      2  O   UNL     1      -0.794 -16.700 -13.206  0.00  0.00    +0.000 OA
ATOM      3  C   UNL     1      -1.164 -18.071 -15.094  0.00  0.00    +0.000 A 
ATOM      4  C   UNL     1      -0.981 -19.310 -15.592  0.00  0.00    +0.000 A 
ATOM      5  C   UNL     1      -0.484 -17.718 -13.814  0.00  0.00    +0.000 A 
ATOM      6  C   UNL     1       0.537 -18.671 -13.320  0.00  0.00    +0.000 A 
ATOM      7  C   UNL     1       0.648 -19.897 -13.976  0.00  0.00    +0.000 A 
ATOM      8  C   UNL     1       1.375 -18.405 -12.229  0.00  0.00    +0.000 A 
ATOM      9  C   UNL     1       1.572 -20.853 -13.546  0.00  0.00    +0.000 A 
ATOM     10  C   UNL     1       2.305 -19.356 -11.796  0.00  0.00    +0.000 A 
ATOM     11  C   UNL     1       2.391 -20.575 -12.461  0.00  0.00    +0.000 A 
ENDROOT
BRANCH   4  12
ATOM     12  C   UNL     1      -1.671 -19.795 -16.805  0.00  0.00    +0.000 A 
ATOM     13  C   UNL     1      -2.878 -20.505 -16.680  0.00  0.00    +0.000 A 
ATOM     14  C   UNL     1      -1.148 -19.554 -18.088  0.00  0.00    +0.000 A 
ATOM     15  C   UNL     1      -3.520 -20.979 -17.819  0.00  0.00    +0.000 A 
ATOM     16  C   UNL     1      -1.797 -20.038 -19.227  0.00  0.00    +0.000 A 
ATOM     17  C   UNL     1      -2.976 -20.750 -19.080  0.00  0.00    +0.000 A 
BRANCH  15  18
ATOM     18  O   UNL     1      -4.690 -21.683 -17.751  0.00  0.00    +0.000 OA
ATOM     19  H   UNL     1      -5.170 -21.405 -16.951  0.00  0.00    +0.000 HD
ENDBRANCH  15  18
BRANCH  17  20
ATOM     20  O   UNL     1      -3.608 -21.226 -20.192  0.00  0.00    +0.000 OA
ATOM     21  H   UNL     1      -3.532 -20.506 -20.850  0.00  0.00    +0.000 HD
ENDBRANCH  17  20
ENDBRANCH   4  12
BRANCH   8  22
ATOM     22  O   UNL     1       1.317 -17.204 -11.580  0.00  0.00    +0.000 OA
ATOM     23  H   UNL     1       0.421 -16.835 -11.606  0.00  0.00    +0.000 HD
ENDBRANCH   8  22
BRANCH  11  24
ATOM     24  O   UNL     1       3.279 -21.535 -12.079  0.00  0.00    +0.000 OA
ATOM     25  H   UNL     1       3.443 -22.139 -12.822  0.00  0.00    +0.000 HD
ENDBRANCH  11  24
BRANCH   3  26
ATOM     26  O   UNL     1      -2.030 -17.137 -15.642  0.00  0.00    +0.000 OA
BRANCH  26  32
ATOM     27  O   UNL     1      -4.276 -17.746 -15.072  0.00  0.00    +0.000 OA
ATOM     28  C   UNL     1      -4.227 -15.092 -16.199  0.00  0.00    +0.000 C 
ATOM     29  C   UNL     1      -5.390 -16.058 -16.451  0.00  0.00    +0.000 C 
ATOM     30  C   UNL     1      -3.537 -15.401 -14.869  0.00  0.00    +0.000 C 
ATOM     31  C   UNL     1      -4.879 -17.500 -16.352  0.00  0.00    +0.000 C 
ATOM     32  C   UNL     1      -3.160 -16.897 -14.790  0.00  0.00    +0.000 C 
ATOM     33  C   UNL     1      -6.009 -18.510 -16.522  0.00  0.00    +0.000 C 
BRANCH  28  34
ATOM     34  O   UNL     1      -4.745 -13.748 -16.185  0.00  0.00    +0.000 OA
ATOM     35  H   UNL     1      -3.965 -13.181 -16.007  0.00  0.00    +0.000 HD
ENDBRANCH  28  34
BRANCH  29  36
ATOM     36  O   UNL     1      -5.952 -15.785 -17.738  0.00  0.00    +0.000 OA
ATOM     37  H   UNL     1      -6.762 -15.267 -17.563  0.00  0.00    +0.000 HD
ENDBRANCH  29  36
BRANCH  30  38
ATOM     38  O   UNL     1      -4.442 -15.011 -13.813  0.00  0.00    +0.000 OA
ATOM     39  H   UNL     1      -5.331 -15.324 -14.063  0.00  0.00    +0.000 HD
ENDBRANCH  30  38
ENDBRANCH  26  32
ENDBRANCH   3  26
TORSDOF 10
ENDMDL
MODEL 3
REMARK VINA RESULT:      -5.8     17.891     21.055
REMARK  Name = 
REMARK  11 active torsions:
REMARK  status: ('A' for Active; 'I' for Inactive)
REMARK    1  A    between atoms: O_2  and  C_16
REMARK    2  A    between atoms: O_2  and  C_18
REMARK    3  A    between atoms: O_3  and  C_12
REMARK    4  A    between atoms: O_4  and  C_13
REMARK    5  A    between atoms: O_5  and  C_14
REMARK    6  A    between atoms: O_8  and  C_24
REMARK    7  A    between atoms: O_9  and  C_29
REMARK    8  A    between atoms: O_10  and  C_30
REMARK    9  A    between atoms: O_11  and  C_32
REMARK   10  A    between atoms: C_15  and  C_17
REMARK   11  A    between atoms: C_19  and  C_23
REMARK                            x       y       z     vdW  Elec       q    Type
REMARK                         _______ _______ _______ _____ _____    ______ ____
ROOT
ATOM      1  O   UNL     1      -2.453 -17.312  -1.228  0.00  0.00    +0.000 OA
ATOM      2  O   UNL     1      -5.555 -15.991   1.029  0.00  0.00    +0.000 OA
ATOM      3  C   UNL     1      -3.935 -15.504  -0.619  0.00  0.00    +0.000 A 
ATOM      4  C   UNL     1      -2.985 -16.048  -1.404  0.00  0.00    +0.000 A 
ATOM      5  C   UNL     1      -4.542 -16.355   0.446  0.00  0.00    +0.000 A 
ATOM      6  C   UNL     1      -3.879 -17.651   0.717  0.00  0.00    +0.000 A 
ATOM      7  C   UNL     1      -2.869 -18.057  -0.157  0.00  0.00    +0.000 A 
ATOM      8  C   UNL     1      -4.226 -18.484   1.790  0.00  0.00    +0.000 A 
ATOM      9  C   UNL     1      -2.220 -19.280   0.026  0.00  0.00    +0.000 A 
ATOM     10  C   UNL     1      -3.577 -19.709   1.980  0.00  0.00    +0.000 A 
ATOM     11  C   UNL     1      -2.579 -20.095   1.091  0.00  0.00    +0.000 A 
ENDROOT
BRANCH   4  12
ATOM     12  C   UNL     1      -2.377 -15.326  -2.542  0.00  0.00    +0.000 A 
ATOM     13  C   UNL     1      -2.878 -15.527  -3.840  0.00  0.00    +0.000 A 
ATOM     14  C   UNL     1      -1.307 -14.433  -2.351  0.00  0.00    +0.000 A 
ATOM     15  C   UNL     1      -2.295 -14.863  -4.914  0.00  0.00    +0.000 A 
ATOM     16  C   UNL     1      -0.725 -13.774  -3.436  0.00  0.00    +0.000 A 
ATOM     17  C   UNL     1      -1.223 -13.999  -4.709  0.00  0.00    +0.000 A 
BRANCH  15  18
ATOM     18  O   UNL     1      -2.739 -15.032  -6.196  0.00  0.00    +0.000 OA
ATOM     19  H   UNL     1      -2.090 -14.634  -6.802  0.00  0.00    +0.000 HD
ENDBRANCH  15  18
BRANCH  17  20
ATOM     20  O   UNL     1      -0.651 -13.359  -5.770  0.00  0.00    +0.000 OA
ATOM     21  H   UNL     1      -0.888 -12.416  -5.650  0.00  0.00    +0.000 HD
ENDBRANCH  17  20
ENDBRANCH   4  12
BRANCH   8  22
ATOM     22  O   UNL     1      -5.187 -18.109   2.683  0.00  0.00    +0.000 OA
ATOM     23  H   UNL     1      -5.756 -18.857   2.922  0.00  0.00    +0.000 HD
ENDBRANCH   8  22
BRANCH  11  24
ATOM     24  O   UNL     1      -1.917 -21.278   1.231  0.00  0.00    +0.000 OA
ATOM     25  H   UNL     1      -2.480 -21.911   1.705  0.00  0.00    +0.000 HD
ENDBRANCH  11  24
BRANCH   3  26
ATOM     26  O   UNL     1      -4.459 -14.234  -0.805  0.00  0.00    +0.000 OA
BRANCH  26  32
ATOM     27  O   UNL     1      -4.447 -13.056   1.280  0.00  0.00    +0.000 OA
ATOM     28  C   UNL     1      -5.000 -11.231  -0.882  0.00  0.00    +0.000 C 
ATOM     29  C   UNL     1      -5.649 -11.073   0.498  0.00  0.00    +0.000 C 
ATOM     30  C   UNL     1      -3.652 -11.946  -0.775  0.00  0.00    +0.000 C 
ATOM     31  C   UNL     1      -5.743 -12.447   1.172  0.00  0.00    +0.000 C 
ATOM     32  C   UNL     1      -3.801 -13.262   0.021  0.00  0.00    +0.000 C 
ATOM     33  C   UNL     1      -6.315 -12.344   2.581  0.00  0.00    +0.000 C 
BRANCH  28  34
ATOM     34  O   UNL     1      -4.819  -9.921  -1.453  0.00  0.00    +0.000 OA
ATOM     35  H   UNL     1      -5.726  -9.562  -1.549  0.00  0.00    +0.000 HD
ENDBRANCH  28  34
BRANCH  29  36
ATOM     36  O   UNL     1      -6.939 -10.474   0.340  0.00  0.00    +0.000 OA
ATOM     37  H   UNL     1      -6.863  -9.897  -0.446  0.00  0.00    +0.000 HD
ENDBRANCH  29  36
BRANCH  30  38
ATOM     38  O   UNL     1      -2.727 -11.032  -0.147  0.00  0.00    +0.000 OA
ATOM     39  H   UNL     1      -2.381 -11.472   0.650  0.00  0.00    +0.000 HD
ENDBRANCH  30  38
ENDBRANCH  26  32
ENDBRANCH   3  26
TORSDOF 10
ENDMDL
MODEL 4
REMARK VINA RESULT:      -5.7     20.119     22.948
REMARK  Name = 
REMARK  11 active torsions:
REMARK  status: ('A' for Active; 'I' for Inactive)
REMARK    1  A    between atoms: O_2  and  C_16
REMARK    2  A    between atoms: O_2  and  C_18
REMARK    3  A    between atoms: O_3  and  C_12
REMARK    4  A    between atoms: O_4  and  C_13
REMARK    5  A    between atoms: O_5  and  C_14
REMARK    6  A    between atoms: O_8  and  C_24
REMARK    7  A    between atoms: O_9  and  C_29
REMARK    8  A    between atoms: O_10  and  C_30
REMARK    9  A    between atoms: O_11  and  C_32
REMARK   10  A    between atoms: C_15  and  C_17
REMARK   11  A    between atoms: C_19  and  C_23
REMARK                            x       y       z     vdW  Elec       q    Type
REMARK                         _______ _______ _______ _____ _____    ______ ____
ROOT
ATOM      1  O   UNL     1      -4.925 -18.000 -16.737  0.00  0.00    +0.000 OA
ATOM      2  O   UNL     1      -3.894 -15.778 -13.502  0.00  0.00    +0.000 OA
ATOM      3  C   UNL     1      -5.443 -16.176 -15.240  0.00  0.00    +0.000 A 
ATOM      4  C   UNL     1      -5.766 -17.025 -16.236  0.00  0.00    +0.000 A 
ATOM      5  C   UNL     1      -4.134 -16.367 -14.549  0.00  0.00    +0.000 A 
ATOM      6  C   UNL     1      -3.186 -17.317 -15.174  0.00  0.00    +0.000 A 
ATOM      7  C   UNL     1      -3.652 -18.092 -16.236  0.00  0.00    +0.000 A 
ATOM      8  C   UNL     1      -1.863 -17.481 -14.742  0.00  0.00    +0.000 A 
ATOM      9  C   UNL     1      -2.819 -19.027 -16.855  0.00  0.00    +0.000 A 
ATOM     10  C   UNL     1      -1.022 -18.413 -15.359  0.00  0.00    +0.000 A 
ATOM     11  C   UNL     1      -1.512 -19.180 -16.411  0.00  0.00    +0.000 A 
ENDROOT
BRANCH   4  12
ATOM     12  C   UNL     1      -7.070 -16.983 -16.931  0.00  0.00    +0.000 A 
ATOM     13  C   UNL     1      -8.215 -17.488 -16.292  0.00  0.00    +0.000 A 
ATOM     14  C   UNL     1      -7.190 -16.438 -18.223  0.00  0.00    +0.000 A 
ATOM     15  C   UNL     1      -9.439 -17.467 -16.952  0.00  0.00    +0.000 A 
ATOM     16  C   UNL     1      -8.423 -16.425 -18.880  0.00  0.00    +0.000 A 
ATOM     17  C   UNL     1      -9.535 -16.944 -18.238  0.00  0.00    +0.000 A 
BRANCH  15  18
ATOM     18  O   UNL     1     -10.580 -17.954 -16.377  0.00  0.00    +0.000 OA
ATOM     19  H   UNL     1     -11.043 -18.506 -17.031  0.00  0.00    +0.000 HD
ENDBRANCH  15  18
BRANCH  17  20
ATOM     20  O   UNL     1     -10.738 -16.935 -18.882  0.00  0.00    +0.000 OA
ATOM     21  H   UNL     1     -10.974 -17.879 -18.985  0.00  0.00    +0.000 HD
ENDBRANCH  17  20
ENDBRANCH   4  12
BRANCH   8  22
ATOM     22  O   UNL     1      -1.361 -16.721 -13.725  0.00  0.00    +0.000 OA
ATOM     23  H   UNL     1      -1.727 -15.822 -13.745  0.00  0.00    +0.000 HD
ENDBRANCH   8  22
BRANCH  11  24
ATOM     24  O   UNL     1      -0.735 -20.101 -17.046  0.00  0.00    +0.000 OA
ATOM     25  H   UNL     1      -0.780 -20.947 -16.570  0.00  0.00    +0.000 HD
ENDBRANCH  11  24
BRANCH   3  26
ATOM     26  O   UNL     1      -6.296 -15.201 -14.747  0.00  0.00    +0.000 OA
BRANCH  26  32
ATOM     27  O   UNL     1      -5.113 -13.169 -15.204  0.00  0.00    +0.000 OA
ATOM     28  C   UNL     1      -7.672 -12.577 -14.016  0.00  0.00    +0.000 C 
ATOM     29  C   UNL     1      -6.428 -11.732 -13.722  0.00  0.00    +0.000 C 
ATOM     30  C   UNL     1      -7.572 -13.240 -15.390  0.00  0.00    +0.000 C 
ATOM     31  C   UNL     1      -5.176 -12.602 -13.886  0.00  0.00    +0.000 C 
ATOM     32  C   UNL     1      -6.233 -13.998 -15.528  0.00  0.00    +0.000 C 
ATOM     33  C   UNL     1      -3.899 -11.796 -13.677  0.00  0.00    +0.000 C 
BRANCH  28  34
ATOM     34  O   UNL     1      -8.828 -11.718 -13.966  0.00  0.00    +0.000 OA
ATOM     35  H   UNL     1      -8.512 -10.853 -14.301  0.00  0.00    +0.000 HD
ENDBRANCH  28  34
BRANCH  29  36
ATOM     36  O   UNL     1      -6.529 -11.198 -12.398  0.00  0.00    +0.000 OA
ATOM     37  H   UNL     1      -7.479 -11.005 -12.268  0.00  0.00    +0.000 HD
ENDBRANCH  29  36
BRANCH  30  38
ATOM     38  O   UNL     1      -7.714 -12.201 -16.382  0.00  0.00    +0.000 OA
ATOM     39  H   UNL     1      -8.348 -11.549 -16.031  0.00  0.00    +0.000 HD
ENDBRANCH  30  38
ENDBRANCH  26  32
ENDBRANCH   3  26
TORSDOF 10
ENDMDL
MODEL 5
REMARK VINA RESULT:      -5.3     17.885     20.845
REMARK  Name = 
REMARK  11 active torsions:
REMARK  status: ('A' for Active; 'I' for Inactive)
REMARK    1  A    between atoms: O_2  and  C_16
REMARK    2  A    between atoms: O_2  and  C_18
REMARK    3  A    between atoms: O_3  and  C_12
REMARK    4  A    between atoms: O_4  and  C_13
REMARK    5  A    between atoms: O_5  and  C_14
REMARK    6  A    between atoms: O_8  and  C_24
REMARK    7  A    between atoms: O_9  and  C_29
REMARK    8  A    between atoms: O_10  and  C_30
REMARK    9  A    between atoms: O_11  and  C_32
REMARK   10  A    between atoms: C_15  and  C_17
REMARK   11  A    between atoms: C_19  and  C_23
REMARK                            x       y       z     vdW  Elec       q    Type
REMARK                         _______ _______ _______ _____ _____    ______ ____
ROOT
ATOM      1  O   UNL     1      -0.772 -17.183  -1.160  0.00  0.00    +0.000 OA
ATOM      2  O   UNL     1      -4.691 -17.512  -0.159  0.00  0.00    +0.000 OA
ATOM      3  C   UNL     1      -2.948 -16.148  -0.984  0.00  0.00    +0.000 A 
ATOM      4  C   UNL     1      -1.663 -16.152  -1.392  0.00  0.00    +0.000 A 
ATOM      5  C   UNL     1      -3.486 -17.381  -0.338  0.00  0.00    +0.000 A 
ATOM      6  C   UNL     1      -2.499 -18.422   0.029  0.00  0.00    +0.000 A 
ATOM      7  C   UNL     1      -1.189 -18.260  -0.422  0.00  0.00    +0.000 A 
ATOM      8  C   UNL     1      -2.822 -19.557   0.786  0.00  0.00    +0.000 A 
ATOM      9  C   UNL     1      -0.214 -19.217  -0.134  0.00  0.00    +0.000 A 
ATOM     10  C   UNL     1      -1.849 -20.518   1.080  0.00  0.00    +0.000 A 
ATOM     11  C   UNL     1      -0.551 -20.337   0.613  0.00  0.00    +0.000 A 
ENDROOT
BRANCH   4  12
ATOM     12  C   UNL     1      -1.051 -15.020  -2.118  0.00  0.00    +0.000 A 
ATOM     13  C   UNL     1      -1.326 -14.841  -3.485  0.00  0.00    +0.000 A 
ATOM     14  C   UNL     1      -0.200 -14.109  -1.466  0.00  0.00    +0.000 A 
ATOM     15  C   UNL     1      -0.736 -13.788  -4.175  0.00  0.00    +0.000 A 
ATOM     16  C   UNL     1       0.392 -13.057  -2.169  0.00  0.00    +0.000 A 
ATOM     17  C   UNL     1       0.121 -12.910  -3.519  0.00  0.00    +0.000 A 
BRANCH  15  18
ATOM     18  O   UNL     1      -0.964 -13.577  -5.507  0.00  0.00    +0.000 OA
ATOM     19  H   UNL     1      -1.072 -12.621  -5.653  0.00  0.00    +0.000 HD
ENDBRANCH  15  18
BRANCH  17  20
ATOM     20  O   UNL     1       0.703 -11.884  -4.206  0.00  0.00    +0.000 OA
ATOM     21  H   UNL     1       1.390 -11.536  -3.601  0.00  0.00    +0.000 HD
ENDBRANCH  17  20
ENDBRANCH   4  12
BRANCH   8  22
ATOM     22  O   UNL     1      -4.086 -19.737   1.270  0.00  0.00    +0.000 OA
ATOM     23  H   UNL     1      -4.192 -20.621   1.654  0.00  0.00    +0.000 HD
ENDBRANCH   8  22
BRANCH  11  24
ATOM     24  O   UNL     1       0.433 -21.243   0.871  0.00  0.00    +0.000 OA
ATOM     25  H   UNL     1       0.790 -21.582   0.034  0.00  0.00    +0.000 HD
ENDBRANCH  11  24
BRANCH   3  26
ATOM     26  O   UNL     1      -3.831 -15.106  -1.222  0.00  0.00    +0.000 OA
BRANCH  26  32
ATOM     27  O   UNL     1      -5.551 -13.811  -0.172  0.00  0.00    +0.000 OA
ATOM     28  C   UNL     1      -3.045 -12.387  -0.081  0.00  0.00    +0.000 C 
ATOM     29  C   UNL     1      -4.384 -11.661  -0.259  0.00  0.00    +0.000 C 
ATOM     30  C   UNL     1      -3.233 -13.707   0.667  0.00  0.00    +0.000 C 
ATOM     31  C   UNL     1      -5.384 -12.605  -0.935  0.00  0.00    +0.000 C 
ATOM     32  C   UNL     1      -4.340 -14.554   0.001  0.00  0.00    +0.000 C 
ATOM     33  C   UNL     1      -6.760 -11.963  -1.072  0.00  0.00    +0.000 C 
BRANCH  28  34
ATOM     34  O   UNL     1      -2.154 -11.526   0.654  0.00  0.00    +0.000 OA
ATOM     35  H   UNL     1      -2.583 -11.408   1.527  0.00  0.00    +0.000 HD
ENDBRANCH  28  34
BRANCH  29  36
ATOM     36  O   UNL     1      -4.172 -10.476  -1.031  0.00  0.00    +0.000 OA
ATOM     37  H   UNL     1      -3.557  -9.928  -0.504  0.00  0.00    +0.000 HD
ENDBRANCH  29  36
BRANCH  30  38
ATOM     38  O   UNL     1      -3.546 -13.385   2.039  0.00  0.00    +0.000 OA
ATOM     39  H   UNL     1      -2.996 -12.620   2.291  0.00  0.00    +0.000 HD
ENDBRANCH  30  38
ENDBRANCH  26  32
ENDBRANCH   3  26
TORSDOF 10
ENDMDL
MODEL 6
REMARK VINA RESULT:      -5.3     16.318     19.628
REMARK  Name = 
REMARK  11 active torsions:
REMARK  status: ('A' for Active; 'I' for Inactive)
REMARK    1  A    between atoms: O_2  and  C_16
REMARK    2  A    between atoms: O_2  and  C_18
REMARK    3  A    between atoms: O_3  and  C_12
REMARK    4  A    between atoms: O_4  and  C_13
REMARK    5  A    between atoms: O_5  and  C_14
REMARK    6  A    between atoms: O_8  and  C_24
REMARK    7  A    between atoms: O_9  and  C_29
REMARK    8  A    between atoms: O_10  and  C_30
REMARK    9  A    between atoms: O_11  and  C_32
REMARK   10  A    between atoms: C_15  and  C_17
REMARK   11  A    between atoms: C_19  and  C_23
REMARK                            x       y       z     vdW  Elec       q    Type
REMARK                         _______ _______ _______ _____ _____    ______ ____
ROOT
ATOM      1  O   UNL     1       0.389 -17.479  -1.417  0.00  0.00    +0.000 OA
ATOM      2  O   UNL     1      -3.130 -15.460  -1.352  0.00  0.00    +0.000 OA
ATOM      3  C   UNL     1      -1.848 -17.266  -0.532  0.00  0.00    +0.000 A 
ATOM      4  C   UNL     1      -0.618 -17.816  -0.533  0.00  0.00    +0.000 A 
ATOM      5  C   UNL     1      -2.116 -16.137  -1.470  0.00  0.00    +0.000 A 
ATOM      6  C   UNL     1      -1.087 -15.873  -2.501  0.00  0.00    +0.000 A 
ATOM      7  C   UNL     1       0.122 -16.563  -2.401  0.00  0.00    +0.000 A 
ATOM      8  C   UNL     1      -1.264 -14.962  -3.552  0.00  0.00    +0.000 A 
ATOM      9  C   UNL     1       1.146 -16.343  -3.325  0.00  0.00    +0.000 A 
ATOM     10  C   UNL     1      -0.244 -14.739  -4.483  0.00  0.00    +0.000 A 
ATOM     11  C   UNL     1       0.955 -15.434  -4.357  0.00  0.00    +0.000 A 
ENDROOT
BRANCH   4  12
ATOM     12  C   UNL     1      -0.217 -18.880   0.412  0.00  0.00    +0.000 A 
ATOM     13  C   UNL     1      -0.848 -20.134   0.354  0.00  0.00    +0.000 A 
ATOM     14  C   UNL     1       0.794 -18.665   1.366  0.00  0.00    +0.000 A 
ATOM     15  C   UNL     1      -0.486 -21.130   1.254  0.00  0.00    +0.000 A 
ATOM     16  C   UNL     1       1.149 -19.670   2.269  0.00  0.00    +0.000 A 
ATOM     17  C   UNL     1       0.501 -20.893   2.206  0.00  0.00    +0.000 A 
BRANCH  15  18
ATOM     18  O   UNL     1      -1.077 -22.364   1.245  0.00  0.00    +0.000 OA
ATOM     19  H   UNL     1      -0.607 -22.934   1.878  0.00  0.00    +0.000 HD
ENDBRANCH  15  18
BRANCH  17  20
ATOM     20  O   UNL     1       0.845 -21.873   3.091  0.00  0.00    +0.000 OA
ATOM     21  H   UNL     1       0.598 -21.516   3.968  0.00  0.00    +0.000 HD
ENDBRANCH  17  20
ENDBRANCH   4  12
BRANCH   8  22
ATOM     22  O   UNL     1      -2.444 -14.290  -3.701  0.00  0.00    +0.000 OA
ATOM     23  H   UNL     1      -2.648 -13.761  -2.914  0.00  0.00    +0.000 HD
ENDBRANCH   8  22
BRANCH  11  24
ATOM     24  O   UNL     1       1.980 -15.254  -5.236  0.00  0.00    +0.000 OA
ATOM     25  H   UNL     1       2.055 -14.311  -5.458  0.00  0.00    +0.000 HD
ENDBRANCH  11  24
BRANCH   3  26
ATOM     26  O   UNL     1      -2.851 -17.614   0.360  0.00  0.00    +0.000 OA
BRANCH  26  32
ATOM     27  O   UNL     1      -2.125 -16.922   2.535  0.00  0.00    +0.000 OA
ATOM     28  C   UNL     1      -4.872 -17.790   2.640  0.00  0.00    +0.000 C 
ATOM     29  C   UNL     1      -3.900 -18.037   3.799  0.00  0.00    +0.000 C 
ATOM     30  C   UNL     1      -4.462 -16.557   1.833  0.00  0.00    +0.000 C 
ATOM     31  C   UNL     1      -2.470 -18.118   3.250  0.00  0.00    +0.000 C 
ATOM     32  C   UNL     1      -2.977 -16.653   1.418  0.00  0.00    +0.000 C 
ATOM     33  C   UNL     1      -1.448 -18.290   4.367  0.00  0.00    +0.000 C 
BRANCH  28  34
ATOM     34  O   UNL     1      -6.193 -17.606   3.185  0.00  0.00    +0.000 OA
ATOM     35  H   UNL     1      -6.602 -18.497   3.157  0.00  0.00    +0.000 HD
ENDBRANCH  28  34
BRANCH  29  36
ATOM     36  O   UNL     1      -4.275 -19.242   4.474  0.00  0.00    +0.000 OA
ATOM     37  H   UNL     1      -3.852 -19.188   5.354  0.00  0.00    +0.000 HD
ENDBRANCH  29  36
BRANCH  30  38
ATOM     38  O   UNL     1      -4.724 -15.398   2.654  0.00  0.00    +0.000 OA
ATOM     39  H   UNL     1      -4.620 -15.671   3.584  0.00  0.00    +0.000 HD
ENDBRANCH  30  38
ENDBRANCH  26  32
ENDBRANCH   3  26
TORSDOF 10
ENDMDL
MODEL 7
REMARK VINA RESULT:      -5.3     12.994     14.300
REMARK  Name = 
REMARK  11 active torsions:
REMARK  status: ('A' for Active; 'I' for Inactive)
REMARK    1  A    between atoms: O_2  and  C_16
REMARK    2  A    between atoms: O_2  and  C_18
REMARK    3  A    between atoms: O_3  and  C_12
REMARK    4  A    between atoms: O_4  and  C_13
REMARK    5  A    between atoms: O_5  and  C_14
REMARK    6  A    between atoms: O_8  and  C_24
REMARK    7  A    between atoms: O_9  and  C_29
REMARK    8  A    between atoms: O_10  and  C_30
REMARK    9  A    between atoms: O_11  and  C_32
REMARK   10  A    between atoms: C_15  and  C_17
REMARK   11  A    between atoms: C_19  and  C_23
REMARK                            x       y       z     vdW  Elec       q    Type
REMARK                         _______ _______ _______ _____ _____    ______ ____
ROOT
ATOM      1  O   UNL     1       6.076 -28.195   2.843  0.00  0.00    +0.000 OA
ATOM      2  O   UNL     1       5.001 -30.240   6.179  0.00  0.00    +0.000 OA
ATOM      3  C   UNL     1       4.821 -30.005   3.836  0.00  0.00    +0.000 A 
ATOM      4  C   UNL     1       5.308 -29.342   2.768  0.00  0.00    +0.000 A 
ATOM      5  C   UNL     1       5.226 -29.544   5.196  0.00  0.00    +0.000 A 
ATOM      6  C   UNL     1       5.931 -28.245   5.274  0.00  0.00    +0.000 A 
ATOM      7  C   UNL     1       6.326 -27.650   4.075  0.00  0.00    +0.000 A 
ATOM      8  C   UNL     1       6.228 -27.600   6.483  0.00  0.00    +0.000 A 
ATOM      9  C   UNL     1       7.018 -26.437   4.076  0.00  0.00    +0.000 A 
ATOM     10  C   UNL     1       6.919 -26.383   6.491  0.00  0.00    +0.000 A 
ATOM     11  C   UNL     1       7.309 -25.815   5.283  0.00  0.00    +0.000 A 
ENDROOT
BRANCH   4  12
ATOM     12  C   UNL     1       5.042 -29.762   1.376  0.00  0.00    +0.000 A 
ATOM     13  C   UNL     1       6.090 -30.281   0.595  0.00  0.00    +0.000 A 
ATOM     14  C   UNL     1       3.756 -29.661   0.817  0.00  0.00    +0.000 A 
ATOM     15  C   UNL     1       5.846 -30.659  -0.720  0.00  0.00    +0.000 A 
ATOM     16  C   UNL     1       3.521 -30.039  -0.507  0.00  0.00    +0.000 A 
ATOM     17  C   UNL     1       4.572 -30.531  -1.265  0.00  0.00    +0.000 A 
BRANCH  15  18
ATOM     18  O   UNL     1       6.833 -31.159  -1.524  0.00  0.00    +0.000 OA
ATOM     19  H   UNL     1       6.447 -31.847  -2.093  0.00  0.00    +0.000 HD
ENDBRANCH  15  18
BRANCH  17  20
ATOM     20  O   UNL     1       4.343 -30.896  -2.560  0.00  0.00    +0.000 OA
ATOM     21  H   UNL     1       3.808 -31.713  -2.499  0.00  0.00    +0.000 HD
ENDBRANCH  17  20
ENDBRANCH   4  12
BRANCH   8  22
ATOM     22  O   UNL     1       5.832 -28.135   7.675  0.00  0.00    +0.000 OA
ATOM     23  H   UNL     1       5.095 -27.633   8.057  0.00  0.00    +0.000 HD
ENDBRANCH   8  22
BRANCH  11  24
ATOM     24  O   UNL     1       7.983 -24.632   5.235  0.00  0.00    +0.000 OA
ATOM     25  H   UNL     1       7.396 -23.936   4.896  0.00  0.00    +0.000 HD
ENDBRANCH  11  24
BRANCH   3  26
ATOM     26  O   UNL     1       4.049 -31.154   3.748  0.00  0.00    +0.000 OA
BRANCH  26  32
ATOM     27  O   UNL     1       4.764 -32.822   2.185  0.00  0.00    +0.000 OA
ATOM     28  C   UNL     1       3.141 -34.025   4.241  0.00  0.00    +0.000 C 
ATOM     29  C   UNL     1       3.101 -34.513   2.789  0.00  0.00    +0.000 C 
ATOM     30  C   UNL     1       4.493 -33.392   4.570  0.00  0.00    +0.000 C 
ATOM     31  C   UNL     1       3.471 -33.353   1.856  0.00  0.00    +0.000 C 
ATOM     32  C   UNL     1       4.857 -32.318   3.520  0.00  0.00    +0.000 C 
ATOM     33  C   UNL     1       3.520 -33.797   0.399  0.00  0.00    +0.000 C 
BRANCH  28  34
ATOM     34  O   UNL     1       2.900 -35.151   5.107  0.00  0.00    +0.000 OA
ATOM     35  H   UNL     1       3.736 -35.266   5.606  0.00  0.00    +0.000 HD
ENDBRANCH  28  34
BRANCH  29  36
ATOM     36  O   UNL     1       1.794 -35.022   2.504  0.00  0.00    +0.000 OA
ATOM     37  H   UNL     1       1.354 -35.110   3.372  0.00  0.00    +0.000 HD
ENDBRANCH  29  36
BRANCH  30  38
ATOM     38  O   UNL     1       5.468 -34.457   4.618  0.00  0.00    +0.000 OA
ATOM     39  H   UNL     1       5.980 -34.420   3.790  0.00  0.00    +0.000 HD
ENDBRANCH  30  38
ENDBRANCH  26  32
ENDBRANCH   3  26
TORSDOF 10
ENDMDL
MODEL 8
REMARK VINA RESULT:      -5.3     20.120     24.248
REMARK  Name = 
REMARK  11 active torsions:
REMARK  status: ('A' for Active; 'I' for Inactive)
REMARK    1  A    between atoms: O_2  and  C_16
REMARK    2  A    between atoms: O_2  and  C_18
REMARK    3  A    between atoms: O_3  and  C_12
REMARK    4  A    between atoms: O_4  and  C_13
REMARK    5  A    between atoms: O_5  and  C_14
REMARK    6  A    between atoms: O_8  and  C_24
REMARK    7  A    between atoms: O_9  and  C_29
REMARK    8  A    between atoms: O_10  and  C_30
REMARK    9  A    between atoms: O_11  and  C_32
REMARK   10  A    between atoms: C_15  and  C_17
REMARK   11  A    between atoms: C_19  and  C_23
REMARK                            x       y       z     vdW  Elec       q    Type
REMARK                         _______ _______ _______ _____ _____    ______ ____
ROOT
ATOM      1  O   UNL     1      -4.435 -14.352 -14.889  0.00  0.00    +0.000 OA
ATOM      2  O   UNL     1      -7.641 -16.298 -16.438  0.00  0.00    +0.000 OA
ATOM      3  C   UNL     1      -6.797 -14.356 -15.393  0.00  0.00    +0.000 A 
ATOM      4  C   UNL     1      -5.668 -13.737 -14.996  0.00  0.00    +0.000 A 
ATOM      5  C   UNL     1      -6.700 -15.770 -15.859  0.00  0.00    +0.000 A 
ATOM      6  C   UNL     1      -5.413 -16.461 -15.616  0.00  0.00    +0.000 A 
ATOM      7  C   UNL     1      -4.344 -15.694 -15.150  0.00  0.00    +0.000 A 
ATOM      8  C   UNL     1      -5.220 -17.831 -15.843  0.00  0.00    +0.000 A 
ATOM      9  C   UNL     1      -3.096 -16.278 -14.924  0.00  0.00    +0.000 A 
ATOM     10  C   UNL     1      -3.972 -18.422 -15.616  0.00  0.00    +0.000 A 
ATOM     11  C   UNL     1      -2.920 -17.635 -15.159  0.00  0.00    +0.000 A 
ENDROOT
BRANCH   4  12
ATOM     12  C   UNL     1      -5.632 -12.314 -14.596  0.00  0.00    +0.000 A 
ATOM     13  C   UNL     1      -5.736 -11.972 -13.237  0.00  0.00    +0.000 A 
ATOM     14  C   UNL     1      -5.489 -11.291 -15.551  0.00  0.00    +0.000 A 
ATOM     15  C   UNL     1      -5.723 -10.634 -12.860  0.00  0.00    +0.000 A 
ATOM     16  C   UNL     1      -5.481  -9.949 -15.164  0.00  0.00    +0.000 A 
ATOM     17  C   UNL     1      -5.602  -9.634 -13.821  0.00  0.00    +0.000 A 
BRANCH  15  18
ATOM     18  O   UNL     1      -5.831 -10.249 -11.552  0.00  0.00    +0.000 OA
ATOM     19  H   UNL     1      -5.073 -10.611 -11.061  0.00  0.00    +0.000 HD
ENDBRANCH  15  18
BRANCH  17  20
ATOM     20  O   UNL     1      -5.599  -8.322 -13.443  0.00  0.00    +0.000 OA
ATOM     21  H   UNL     1      -4.789  -7.948 -13.846  0.00  0.00    +0.000 HD
ENDBRANCH  17  20
ENDBRANCH   4  12
BRANCH   8  22
ATOM     22  O   UNL     1      -6.249 -18.620 -16.270  0.00  0.00    +0.000 OA
ATOM     23  H   UNL     1      -6.443 -19.321 -15.628  0.00  0.00    +0.000 HD
ENDBRANCH   8  22
BRANCH  11  24
ATOM     24  O   UNL     1      -1.685 -18.161 -14.923  0.00  0.00    +0.000 OA
ATOM     25  H   UNL     1      -1.286 -17.719 -14.155  0.00  0.00    +0.000 HD
ENDBRANCH  11  24
BRANCH   3  26
ATOM     26  O   UNL     1      -8.029 -13.727 -15.493  0.00  0.00    +0.000 OA
BRANCH  26  32
ATOM     27  O   UNL     1     -10.016 -14.664 -14.539  0.00  0.00    +0.000 OA
ATOM     28  C   UNL     1     -10.162 -11.785 -14.497  0.00  0.00    +0.000 C 
ATOM     29  C   UNL     1     -11.401 -12.656 -14.731  0.00  0.00    +0.000 C 
ATOM     30  C   UNL     1      -9.111 -12.536 -13.678  0.00  0.00    +0.000 C 
ATOM     31  C   UNL     1     -10.973 -13.983 -15.366  0.00  0.00    +0.000 C 
ATOM     32  C   UNL     1      -8.819 -13.916 -14.310  0.00  0.00    +0.000 C 
ATOM     33  C   UNL     1     -12.158 -14.924 -15.557  0.00  0.00    +0.000 C 
BRANCH  28  34
ATOM     34  O   UNL     1     -10.569 -10.591 -13.800  0.00  0.00    +0.000 OA
ATOM     35  H   UNL     1     -11.545 -10.654 -13.744  0.00  0.00    +0.000 HD
ENDBRANCH  28  34
BRANCH  29  36
ATOM     36  O   UNL     1     -12.320 -11.944 -15.566  0.00  0.00    +0.000 OA
ATOM     37  H   UNL     1     -11.986 -11.025 -15.595  0.00  0.00    +0.000 HD
ENDBRANCH  29  36
BRANCH  30  38
ATOM     38  O   UNL     1      -9.616 -12.652 -12.330  0.00  0.00    +0.000 OA
ATOM     39  H   UNL     1      -9.119 -13.369 -11.895  0.00  0.00    +0.000 HD
ENDBRANCH  30  38
ENDBRANCH  26  32
ENDBRANCH   3  26
TORSDOF 10
ENDMDL
MODEL 9
REMARK VINA RESULT:      -5.2     18.694     21.168
REMARK  Name = 
REMARK  11 active torsions:
REMARK  status: ('A' for Active; 'I' for Inactive)
REMARK    1  A    between atoms: O_2  and  C_16
REMARK    2  A    between atoms: O_2  and  C_18
REMARK    3  A    between atoms: O_3  and  C_12
REMARK    4  A    between atoms: O_4  and  C_13
REMARK    5  A    between atoms: O_5  and  C_14
REMARK    6  A    between atoms: O_8  and  C_24
REMARK    7  A    between atoms: O_9  and  C_29
REMARK    8  A    between atoms: O_10  and  C_30
REMARK    9  A    between atoms: O_11  and  C_32
REMARK   10  A    between atoms: C_15  and  C_17
REMARK   11  A    between atoms: C_19  and  C_23
REMARK                            x       y       z     vdW  Elec       q    Type
REMARK                         _______ _______ _______ _____ _____    ______ ____
ROOT
ATOM      1  O   UNL     1      -4.026 -11.932  -0.872  0.00  0.00    +0.000 OA
ATOM      2  O   UNL     1      -5.248 -14.072   2.352  0.00  0.00    +0.000 OA
ATOM      3  C   UNL     1      -4.219 -14.075   0.226  0.00  0.00    +0.000 A 
ATOM      4  C   UNL     1      -3.750 -13.282  -0.757  0.00  0.00    +0.000 A 
ATOM      5  C   UNL     1      -4.997 -13.443   1.331  0.00  0.00    +0.000 A 
ATOM      6  C   UNL     1      -5.404 -12.033   1.134  0.00  0.00    +0.000 A 
ATOM      7  C   UNL     1      -4.876 -11.355   0.035  0.00  0.00    +0.000 A 
ATOM      8  C   UNL     1      -6.273 -11.353   1.999  0.00  0.00    +0.000 A 
ATOM      9  C   UNL     1      -5.197 -10.015  -0.196  0.00  0.00    +0.000 A 
ATOM     10  C   UNL     1      -6.601 -10.013   1.771  0.00  0.00    +0.000 A 
ATOM     11  C   UNL     1      -6.056  -9.356   0.673  0.00  0.00    +0.000 A 
ENDROOT
BRANCH   4  12
ATOM     12  C   UNL     1      -2.897 -13.786  -1.853  0.00  0.00    +0.000 A 
ATOM     13  C   UNL     1      -3.466 -14.570  -2.872  0.00  0.00    +0.000 A 
ATOM     14  C   UNL     1      -1.522 -13.490  -1.904  0.00  0.00    +0.000 A 
ATOM     15  C   UNL     1      -2.662 -15.061  -3.894  0.00  0.00    +0.000 A 
ATOM     16  C   UNL     1      -0.722 -13.992  -2.933  0.00  0.00    +0.000 A 
ATOM     17  C   UNL     1      -1.300 -14.777  -3.916  0.00  0.00    +0.000 A 
BRANCH  15  18
ATOM     18  O   UNL     1      -3.166 -15.836  -4.902  0.00  0.00    +0.000 OA
ATOM     19  H   UNL     1      -4.095 -16.040  -4.699  0.00  0.00    +0.000 HD
ENDBRANCH  15  18
BRANCH  17  20
ATOM     20  O   UNL     1      -0.516 -15.270  -4.919  0.00  0.00    +0.000 OA
ATOM     21  H   UNL     1      -0.343 -16.200  -4.667  0.00  0.00    +0.000 HD
ENDBRANCH  17  20
ENDBRANCH   4  12
BRANCH   8  22
ATOM     22  O   UNL     1      -6.834 -11.991   3.068  0.00  0.00    +0.000 OA
ATOM     23  H   UNL     1      -6.869 -12.950   2.926  0.00  0.00    +0.000 HD
ENDBRANCH   8  22
BRANCH  11  24
ATOM     24  O   UNL     1      -6.343  -8.051   0.406  0.00  0.00    +0.000 OA
ATOM     25  H   UNL     1      -7.154  -7.795   0.875  0.00  0.00    +0.000 HD
ENDBRANCH  11  24
BRANCH   3  26
ATOM     26  O   UNL     1      -3.936 -15.429   0.329  0.00  0.00    +0.000 OA
BRANCH  26  32
ATOM     27  O   UNL     1      -1.606 -15.978   0.248  0.00  0.00    +0.000 OA
ATOM     28  C   UNL     1      -3.088 -18.132   1.463  0.00  0.00    +0.000 C 
ATOM     29  C   UNL     1      -1.869 -18.390   0.571  0.00  0.00    +0.000 C 
ATOM     30  C   UNL     1      -3.000 -16.758   2.129  0.00  0.00    +0.000 C 
ATOM     31  C   UNL     1      -1.723 -17.239  -0.430  0.00  0.00    +0.000 C 
ATOM     32  C   UNL     1      -2.731 -15.663   1.073  0.00  0.00    +0.000 C 
ATOM     33  C   UNL     1      -0.481 -17.402  -1.299  0.00  0.00    +0.000 C 
BRANCH  28  34
ATOM     34  O   UNL     1      -3.145 -19.164   2.468  0.00  0.00    +0.000 OA
ATOM     35  H   UNL     1      -2.499 -19.839   2.170  0.00  0.00    +0.000 HD
ENDBRANCH  28  34
BRANCH  29  36
ATOM     36  O   UNL     1      -2.033 -19.648  -0.091  0.00  0.00    +0.000 OA
ATOM     37  H   UNL     1      -1.685 -19.513  -0.995  0.00  0.00    +0.000 HD
ENDBRANCH  29  36
BRANCH  30  38
ATOM     38  O   UNL     1      -1.952 -16.826   3.121  0.00  0.00    +0.000 OA
ATOM     39  H   UNL     1      -1.959 -15.982   3.608  0.00  0.00    +0.000 HD
ENDBRANCH  30  38
ENDBRANCH  26  32
ENDBRANCH   3  26
TORSDOF 10
ENDMDL
