MODEL 1
REMARK VINA RESULT:      -5.6      0.000      0.000
REMARK  Name = Quercetin.pdbqt.pdb
REMARK  6 active torsions:
REMARK  status: ('A' for Active; 'I' for Inactive)
REMARK    1  A    between atoms: C_5  and  C_12
REMARK    2  A    between atoms: C_6  and  O_22
REMARK    3  A    between atoms: C_8  and  O_24
REMARK    4  A    between atoms: C_10  and  O_26
REMARK    5  A    between atoms: C_15  and  O_18
REMARK    6  A    between atoms: C_17  and  O_20
REMARK                            x       y       z     vdW  Elec       q    Type
REMARK                         _______ _______ _______ _____ _____    ______ ____
ROOT
ATOM      1  O   UNL     1      -3.101 -35.217  -4.955  0.00  0.00    +0.000 OA
ATOM      2  O   UNL     1      -6.542 -36.821  -6.408  0.00  0.00    +0.000 OA
ATOM      3  C   UNL     1      -5.069 -35.015  -6.357  0.00  0.00    +0.000 A 
ATOM      4  C   UNL     1      -3.885 -34.513  -5.827  0.00  0.00    +0.000 A 
ATOM      5  C   UNL     1      -3.488 -36.499  -4.590  0.00  0.00    +0.000 A 
ATOM      6  C   UNL     1      -4.616 -37.107  -5.015  0.00  0.00    +0.000 A 
ATOM      7  C   UNL     1      -5.495 -36.360  -5.960  0.00  0.00    +0.000 A 
ATOM      8  C   UNL     1      -5.823 -34.237  -7.244  0.00  0.00    +0.000 A 
ATOM      9  C   UNL     1      -3.448 -33.237  -6.177  0.00  0.00    +0.000 A 
ATOM     10  C   UNL     1      -4.204 -32.473  -7.060  0.00  0.00    +0.000 A 
ATOM     11  C   UNL     1      -5.390 -32.962  -7.597  0.00  0.00    +0.000 A 
ENDROOT
BRANCH   5  12
ATOM     12  C   UNL     1      -2.527 -37.123  -3.669  0.00  0.00    +0.000 A 
ATOM     13  C   UNL     1      -2.691 -37.028  -2.284  0.00  0.00    +0.000 A 
ATOM     14  C   UNL     1      -1.464 -37.878  -4.184  0.00  0.00    +0.000 A 
ATOM     15  C   UNL     1      -1.788 -37.660  -1.438  0.00  0.00    +0.000 A 
ATOM     16  C   UNL     1      -0.570 -38.525  -3.332  0.00  0.00    +0.000 A 
ATOM     17  C   UNL     1      -0.750 -38.424  -1.960  0.00  0.00    +0.000 A 
BRANCH  15  18
ATOM     18  O   UNL     1      -1.919 -37.487  -0.091  0.00  0.00    +0.000 OA
ATOM     19  H   UNL     1      -2.875 -37.473   0.104  0.00  0.00    +0.000 HD
ENDBRANCH  15  18
BRANCH  17  20
ATOM     20  O   UNL     1       0.092 -39.104  -1.129  0.00  0.00    +0.000 OA
ATOM     21  H   UNL     1       0.487 -39.821  -1.660  0.00  0.00    +0.000 HD
ENDBRANCH  17  20
ENDBRANCH   5  12
BRANCH   6  22
ATOM     22  O   UNL     1      -5.039 -38.366  -4.632  0.00  0.00    +0.000 OA
ATOM     23  H   UNL     1      -5.602 -38.306  -3.845  0.00  0.00    +0.000 HD
ENDBRANCH   6  22
BRANCH   8  24
ATOM     24  O   UNL     1      -6.998 -34.665  -7.802  0.00  0.00    +0.000 OA
ATOM     25  H   UNL     1      -6.987 -35.650  -7.825  0.00  0.00    +0.000 HD
ENDBRANCH   8  24
BRANCH  10  26
ATOM     26  O   UNL     1      -3.754 -31.227  -7.388  0.00  0.00    +0.000 OA
ATOM     27  H   UNL     1      -2.993 -31.327  -7.987  0.00  0.00    +0.000 HD
ENDBRANCH  10  26
TORSDOF 6
ENDMDL
MODEL 2
REMARK VINA RESULT:      -5.6      3.811      6.081
REMARK  Name = Quercetin.pdbqt.pdb
REMARK  6 active torsions:
REMARK  status: ('A' for Active; 'I' for Inactive)
REMARK    1  A    between atoms: C_5  and  C_12
REMARK    2  A    between atoms: C_6  and  O_22
REMARK    3  A    between atoms: C_8  and  O_24
REMARK    4  A    between atoms: C_10  and  O_26
REMARK    5  A    between atoms: C_15  and  O_18
REMARK    6  A    between atoms: C_17  and  O_20
REMARK                            x       y       z     vdW  Elec       q    Type
REMARK                         _______ _______ _______ _____ _____    ______ ____
ROOT
ATOM      1  O   UNL     1      -2.816 -34.847  -7.567  0.00  0.00    +0.000 OA
ATOM      2  O   UNL     1      -2.095 -31.541  -9.820  0.00  0.00    +0.000 OA
ATOM      3  C   UNL     1      -1.856 -33.845  -9.556  0.00  0.00    +0.000 A 
ATOM      4  C   UNL     1      -2.127 -34.942  -8.745  0.00  0.00    +0.000 A 
ATOM      5  C   UNL     1      -3.284 -33.605  -7.162  0.00  0.00    +0.000 A 
ATOM      6  C   UNL     1      -3.085 -32.455  -7.841  0.00  0.00    +0.000 A 
ATOM      7  C   UNL     1      -2.331 -32.527  -9.125  0.00  0.00    +0.000 A 
ATOM      8  C   UNL     1      -1.144 -34.017 -10.749  0.00  0.00    +0.000 A 
ATOM      9  C   UNL     1      -1.691 -36.212  -9.118  0.00  0.00    +0.000 A 
ATOM     10  C   UNL     1      -0.985 -36.372 -10.306  0.00  0.00    +0.000 A 
ATOM     11  C   UNL     1      -0.707 -35.283 -11.126  0.00  0.00    +0.000 A 
ENDROOT
BRANCH   5  12
ATOM     12  C   UNL     1      -4.021 -33.681  -5.893  0.00  0.00    +0.000 A 
ATOM     13  C   UNL     1      -5.405 -33.482  -5.851  0.00  0.00    +0.000 A 
ATOM     14  C   UNL     1      -3.340 -34.017  -4.715  0.00  0.00    +0.000 A 
ATOM     15  C   UNL     1      -6.081 -33.596  -4.643  0.00  0.00    +0.000 A 
ATOM     16  C   UNL     1      -4.025 -34.148  -3.508  0.00  0.00    +0.000 A 
ATOM     17  C   UNL     1      -5.399 -33.952  -3.484  0.00  0.00    +0.000 A 
BRANCH  15  18
ATOM     18  O   UNL     1      -7.416 -33.318  -4.609  0.00  0.00    +0.000 OA
ATOM     19  H   UNL     1      -7.835 -33.993  -4.044  0.00  0.00    +0.000 HD
ENDBRANCH  15  18
BRANCH  17  20
ATOM     20  O   UNL     1      -6.075 -34.135  -2.314  0.00  0.00    +0.000 OA
ATOM     21  H   UNL     1      -7.024 -34.078  -2.529  0.00  0.00    +0.000 HD
ENDBRANCH  17  20
ENDBRANCH   5  12
BRANCH   6  22
ATOM     22  O   UNL     1      -3.509 -31.203  -7.436  0.00  0.00    +0.000 OA
ATOM     23  H   UNL     1      -3.518 -30.592  -8.189  0.00  0.00    +0.000 HD
ENDBRANCH   6  22
BRANCH   8  24
ATOM     24  O   UNL     1      -0.840 -32.983 -11.594  0.00  0.00    +0.000 OA
ATOM     25  H   UNL     1      -1.670 -32.695 -12.040  0.00  0.00    +0.000 HD
ENDBRANCH   8  24
BRANCH  10  26
ATOM     26  O   UNL     1      -0.569 -37.625 -10.649  0.00  0.00    +0.000 OA
ATOM     27  H   UNL     1       0.310 -37.771 -10.254  0.00  0.00    +0.000 HD
ENDBRANCH  10  26
TORSDOF 6
ENDMDL
MODEL 3
REMARK VINA RESULT:      -5.5      1.753      3.098
REMARK  Name = Quercetin.pdbqt.pdb
REMARK  6 active torsions:
REMARK  status: ('A' for Active; 'I' for Inactive)
REMARK    1  A    between atoms: C_5  and  C_12
REMARK    2  A    between atoms: C_6  and  O_22
REMARK    3  A    between atoms: C_8  and  O_24
REMARK    4  A    between atoms: C_10  and  O_26
REMARK    5  A    between atoms: C_15  and  O_18
REMARK    6  A    between atoms: C_17  and  O_20
REMARK                            x       y       z     vdW  Elec       q    Type
REMARK                         _______ _______ _______ _____ _____    ______ ____
ROOT
ATOM      1  O   UNL     1      -3.624 -36.477  -6.158  0.00  0.00    +0.000 OA
ATOM      2  O   UNL     1      -3.536 -32.460  -6.771  0.00  0.00    +0.000 OA
ATOM      3  C   UNL     1      -4.180 -34.564  -7.540  0.00  0.00    +0.000 A 
ATOM      4  C   UNL     1      -4.179 -35.930  -7.283  0.00  0.00    +0.000 A 
ATOM      5  C   UNL     1      -3.048 -35.636  -5.217  0.00  0.00    +0.000 A 
ATOM      6  C   UNL     1      -2.966 -34.293  -5.341  0.00  0.00    +0.000 A 
ATOM      7  C   UNL     1      -3.556 -33.670  -6.560  0.00  0.00    +0.000 A 
ATOM      8  C   UNL     1      -4.766 -34.073  -8.714  0.00  0.00    +0.000 A 
ATOM      9  C   UNL     1      -4.760 -36.813  -8.191  0.00  0.00    +0.000 A 
ATOM     10  C   UNL     1      -5.341 -36.316  -9.354  0.00  0.00    +0.000 A 
ATOM     11  C   UNL     1      -5.348 -34.951  -9.623  0.00  0.00    +0.000 A 
ENDROOT
BRANCH   5  12
ATOM     12  C   UNL     1      -2.522 -36.378  -4.063  0.00  0.00    +0.000 A 
ATOM     13  C   UNL     1      -2.988 -36.122  -2.770  0.00  0.00    +0.000 A 
ATOM     14  C   UNL     1      -1.584 -37.399  -4.265  0.00  0.00    +0.000 A 
ATOM     15  C   UNL     1      -2.501 -36.864  -1.701  0.00  0.00    +0.000 A 
ATOM     16  C   UNL     1      -1.109 -38.154  -3.193  0.00  0.00    +0.000 A 
ATOM     17  C   UNL     1      -1.586 -37.890  -1.916  0.00  0.00    +0.000 A 
BRANCH  15  18
ATOM     18  O   UNL     1      -2.907 -36.544  -0.440  0.00  0.00    +0.000 OA
ATOM     19  H   UNL     1      -2.185 -36.795   0.166  0.00  0.00    +0.000 HD
ENDBRANCH  15  18
BRANCH  17  20
ATOM     20  O   UNL     1      -1.163 -38.666  -0.877  0.00  0.00    +0.000 OA
ATOM     21  H   UNL     1      -1.466 -38.227  -0.061  0.00  0.00    +0.000 HD
ENDBRANCH  17  20
ENDBRANCH   5  12
BRANCH   6  22
ATOM     22  O   UNL     1      -2.362 -33.443  -4.435  0.00  0.00    +0.000 OA
ATOM     23  H   UNL     1      -1.601 -33.879  -4.021  0.00  0.00    +0.000 HD
ENDBRANCH   6  22
BRANCH   8  24
ATOM     24  O   UNL     1      -4.802 -32.743  -9.032  0.00  0.00    +0.000 OA
ATOM     25  H   UNL     1      -5.181 -32.651  -9.938  0.00  0.00    +0.000 HD
ENDBRANCH   8  24
BRANCH  10  26
ATOM     26  O   UNL     1      -5.903 -37.200 -10.227  0.00  0.00    +0.000 OA
ATOM     27  H   UNL     1      -5.393 -37.173 -11.056  0.00  0.00    +0.000 HD
ENDBRANCH  10  26
TORSDOF 6
ENDMDL
MODEL 4
REMARK VINA RESULT:      -5.4     18.668     20.854
REMARK  Name = Quercetin.pdbqt.pdb
REMARK  6 active torsions:
REMARK  status: ('A' for Active; 'I' for Inactive)
REMARK    1  A    between atoms: C_5  and  C_12
REMARK    2  A    between atoms: C_6  and  O_22
REMARK    3  A    between atoms: C_8  and  O_24
REMARK    4  A    between atoms: C_10  and  O_26
REMARK    5  A    between atoms: C_15  and  O_18
REMARK    6  A    between atoms: C_17  and  O_20
REMARK                            x       y       z     vdW  Elec       q    Type
REMARK                         _______ _______ _______ _____ _____    ______ ____
ROOT
ATOM      1  O   UNL     1      -0.212 -20.063 -15.177  0.00  0.00    +0.000 OA
ATOM      2  O   UNL     1      -1.187 -16.408 -13.689  0.00  0.00    +0.000 OA
ATOM      3  C   UNL     1       0.127 -18.326 -13.519  0.00  0.00    +0.000 A 
ATOM      4  C   UNL     1       0.419 -19.570 -14.067  0.00  0.00    +0.000 A 
ATOM      5  C   UNL     1      -1.177 -19.285 -15.801  0.00  0.00    +0.000 A 
ATOM      6  C   UNL     1      -1.570 -18.066 -15.373  0.00  0.00    +0.000 A 
ATOM      7  C   UNL     1      -0.905 -17.507 -14.161  0.00  0.00    +0.000 A 
ATOM      8  C   UNL     1       0.812 -17.885 -12.380  0.00  0.00    +0.000 A 
ATOM      9  C   UNL     1       1.392 -20.380 -13.485  0.00  0.00    +0.000 A 
ATOM     10  C   UNL     1       2.067 -19.933 -12.354  0.00  0.00    +0.000 A 
ATOM     11  C   UNL     1       1.785 -18.691 -11.795  0.00  0.00    +0.000 A 
ENDROOT
BRANCH   5  12
ATOM     12  C   UNL     1      -1.737 -19.948 -16.987  0.00  0.00    +0.000 A 
ATOM     13  C   UNL     1      -2.983 -20.581 -16.936  0.00  0.00    +0.000 A 
ATOM     14  C   UNL     1      -1.044 -19.894 -18.203  0.00  0.00    +0.000 A 
ATOM     15  C   UNL     1      -3.506 -21.167 -18.082  0.00  0.00    +0.000 A 
ATOM     16  C   UNL     1      -1.579 -20.469 -19.355  0.00  0.00    +0.000 A 
ATOM     17  C   UNL     1      -2.819 -21.089 -19.289  0.00  0.00    +0.000 A 
BRANCH  15  18
ATOM     18  O   UNL     1      -4.683 -21.850 -17.991  0.00  0.00    +0.000 OA
ATOM     19  H   UNL     1      -4.693 -22.502 -18.717  0.00  0.00    +0.000 HD
ENDBRANCH  15  18
BRANCH  17  20
ATOM     20  O   UNL     1      -3.366 -21.601 -20.429  0.00  0.00    +0.000 OA
ATOM     21  H   UNL     1      -2.939 -21.138 -21.174  0.00  0.00    +0.000 HD
ENDBRANCH  17  20
ENDBRANCH   5  12
BRANCH   6  22
ATOM     22  O   UNL     1      -2.556 -17.293 -15.957  0.00  0.00    +0.000 OA
ATOM     23  H   UNL     1      -2.658 -17.530 -16.892  0.00  0.00    +0.000 HD
ENDBRANCH   6  22
BRANCH   8  24
ATOM     24  O   UNL     1       0.576 -16.675 -11.786  0.00  0.00    +0.000 OA
ATOM     25  H   UNL     1       1.428 -16.182 -11.739  0.00  0.00    +0.000 HD
ENDBRANCH   8  24
BRANCH  10  26
ATOM     26  O   UNL     1       3.016 -20.744 -11.802  0.00  0.00    +0.000 OA
ATOM     27  H   UNL     1       2.561 -21.433 -11.284  0.00  0.00    +0.000 HD
ENDBRANCH  10  26
TORSDOF 6
ENDMDL
MODEL 5
REMARK VINA RESULT:      -5.3     19.956     22.174
REMARK  Name = Quercetin.pdbqt.pdb
REMARK  6 active torsions:
REMARK  status: ('A' for Active; 'I' for Inactive)
REMARK    1  A    between atoms: C_5  and  C_12
REMARK    2  A    between atoms: C_6  and  O_22
REMARK    3  A    between atoms: C_8  and  O_24
REMARK    4  A    between atoms: C_10  and  O_26
REMARK    5  A    between atoms: C_15  and  O_18
REMARK    6  A    between atoms: C_17  and  O_20
REMARK                            x       y       z     vdW  Elec       q    Type
REMARK                         _______ _______ _______ _____ _____    ______ ____
ROOT
ATOM      1  O   UNL     1      -2.789 -13.730  -2.325  0.00  0.00    +0.000 OA
ATOM      2  O   UNL     1      -4.283 -17.055  -0.526  0.00  0.00    +0.000 OA
ATOM      3  C   UNL     1      -4.211 -14.727  -0.633  0.00  0.00    +0.000 A 
ATOM      4  C   UNL     1      -3.667 -13.624  -1.281  0.00  0.00    +0.000 A 
ATOM      5  C   UNL     1      -2.432 -14.992  -2.775  0.00  0.00    +0.000 A 
ATOM      6  C   UNL     1      -2.871 -16.150  -2.235  0.00  0.00    +0.000 A 
ATOM      7  C   UNL     1      -3.823 -16.065  -1.090  0.00  0.00    +0.000 A 
ATOM      8  C   UNL     1      -5.104 -14.544   0.431  0.00  0.00    +0.000 A 
ATOM      9  C   UNL     1      -4.008 -12.336  -0.874  0.00  0.00    +0.000 A 
ATOM     10  C   UNL     1      -4.897 -12.164   0.183  0.00  0.00    +0.000 A 
ATOM     11  C   UNL     1      -5.448 -13.259   0.840  0.00  0.00    +0.000 A 
ENDROOT
BRANCH   5  12
ATOM     12  C   UNL     1      -1.504 -14.930  -3.913  0.00  0.00    +0.000 A 
ATOM     13  C   UNL     1      -1.966 -14.651  -5.204  0.00  0.00    +0.000 A 
ATOM     14  C   UNL     1      -0.130 -15.090  -3.696  0.00  0.00    +0.000 A 
ATOM     15  C   UNL     1      -1.062 -14.561  -6.255  0.00  0.00    +0.000 A 
ATOM     16  C   UNL     1       0.777 -14.982  -4.750  0.00  0.00    +0.000 A 
ATOM     17  C   UNL     1       0.303 -14.701  -6.024  0.00  0.00    +0.000 A 
BRANCH  15  18
ATOM     18  O   UNL     1      -1.540 -14.370  -7.518  0.00  0.00    +0.000 OA
ATOM     19  H   UNL     1      -1.019 -14.943  -8.111  0.00  0.00    +0.000 HD
ENDBRANCH  15  18
BRANCH  17  20
ATOM     20  O   UNL     1       1.195 -14.539  -7.043  0.00  0.00    +0.000 OA
ATOM     21  H   UNL     1       1.187 -13.592  -7.272  0.00  0.00    +0.000 HD
ENDBRANCH  17  20
ENDBRANCH   5  12
BRANCH   6  22
ATOM     22  O   UNL     1      -2.498 -17.416  -2.643  0.00  0.00    +0.000 OA
ATOM     23  H   UNL     1      -2.656 -18.058  -1.933  0.00  0.00    +0.000 HD
ENDBRANCH   6  22
BRANCH   8  24
ATOM     24  O   UNL     1      -5.675 -15.583   1.115  0.00  0.00    +0.000 OA
ATOM     25  H   UNL     1      -6.210 -15.209   1.854  0.00  0.00    +0.000 HD
ENDBRANCH   8  24
BRANCH  10  26
ATOM     26  O   UNL     1      -5.215 -10.893   0.562  0.00  0.00    +0.000 OA
ATOM     27  H   UNL     1      -5.540 -10.415  -0.222  0.00  0.00    +0.000 HD
ENDBRANCH  10  26
TORSDOF 6
ENDMDL
MODEL 6
REMARK VINA RESULT:      -5.3      3.911      5.248
REMARK  Name = Quercetin.pdbqt.pdb
REMARK  6 active torsions:
REMARK  status: ('A' for Active; 'I' for Inactive)
REMARK    1  A    between atoms: C_5  and  C_12
REMARK    2  A    between atoms: C_6  and  O_22
REMARK    3  A    between atoms: C_8  and  O_24
REMARK    4  A    between atoms: C_10  and  O_26
REMARK    5  A    between atoms: C_15  and  O_18
REMARK    6  A    between atoms: C_17  and  O_20
REMARK                            x       y       z     vdW  Elec       q    Type
REMARK                         _______ _______ _______ _____ _____    ______ ____
ROOT
ATOM      1  O   UNL     1      -2.606 -33.544  -8.156  0.00  0.00    +0.000 OA
ATOM      2  O   UNL     1      -2.177 -37.014 -10.230  0.00  0.00    +0.000 OA
ATOM      3  C   UNL     1      -1.814 -34.713 -10.127  0.00  0.00    +0.000 A 
ATOM      4  C   UNL     1      -1.991 -33.556  -9.378  0.00  0.00    +0.000 A 
ATOM      5  C   UNL     1      -3.064 -34.741  -7.625  0.00  0.00    +0.000 A 
ATOM      6  C   UNL     1      -2.972 -35.937  -8.245  0.00  0.00    +0.000 A 
ATOM      7  C   UNL     1      -2.313 -35.979  -9.581  0.00  0.00    +0.000 A 
ATOM      8  C   UNL     1      -1.175 -34.651 -11.372  0.00  0.00    +0.000 A 
ATOM      9  C   UNL     1      -1.533 -32.332  -9.863  0.00  0.00    +0.000 A 
ATOM     10  C   UNL     1      -0.899 -32.280 -11.101  0.00  0.00    +0.000 A 
ATOM     11  C   UNL     1      -0.716 -33.431 -11.861  0.00  0.00    +0.000 A 
ENDROOT
BRANCH   5  12
ATOM     12  C   UNL     1      -3.676 -34.558  -6.301  0.00  0.00    +0.000 A 
ATOM     13  C   UNL     1      -2.901 -34.597  -5.138  0.00  0.00    +0.000 A 
ATOM     14  C   UNL     1      -5.046 -34.279  -6.204  0.00  0.00    +0.000 A 
ATOM     15  C   UNL     1      -3.500 -34.384  -3.903  0.00  0.00    +0.000 A 
ATOM     16  C   UNL     1      -5.640 -34.049  -4.964  0.00  0.00    +0.000 A 
ATOM     17  C   UNL     1      -4.856 -34.087  -3.820  0.00  0.00    +0.000 A 
BRANCH  15  18
ATOM     18  O   UNL     1      -2.741 -34.508  -2.776  0.00  0.00    +0.000 OA
ATOM     19  H   UNL     1      -1.911 -34.021  -2.935  0.00  0.00    +0.000 HD
ENDBRANCH  15  18
BRANCH  17  20
ATOM     20  O   UNL     1      -5.428 -33.805  -2.614  0.00  0.00    +0.000 OA
ATOM     21  H   UNL     1      -5.549 -34.659  -2.158  0.00  0.00    +0.000 HD
ENDBRANCH  17  20
ENDBRANCH   5  12
BRANCH   6  22
ATOM     22  O   UNL     1      -3.456 -37.133  -7.750  0.00  0.00    +0.000 OA
ATOM     23  H   UNL     1      -3.669 -37.045  -6.807  0.00  0.00    +0.000 HD
ENDBRANCH   6  22
BRANCH   8  24
ATOM     24  O   UNL     1      -0.969 -35.749 -12.163  0.00  0.00    +0.000 OA
ATOM     25  H   UNL     1      -0.001 -35.933 -12.190  0.00  0.00    +0.000 HD
ENDBRANCH   8  24
BRANCH  10  26
ATOM     26  O   UNL     1      -0.460 -31.071 -11.554  0.00  0.00    +0.000 OA
ATOM     27  H   UNL     1       0.360 -30.848 -11.077  0.00  0.00    +0.000 HD
ENDBRANCH  10  26
TORSDOF 6
ENDMDL
MODEL 7
REMARK VINA RESULT:      -5.2     19.495     20.740
REMARK  Name = Quercetin.pdbqt.pdb
REMARK  6 active torsions:
REMARK  status: ('A' for Active; 'I' for Inactive)
REMARK    1  A    between atoms: C_5  and  C_12
REMARK    2  A    between atoms: C_6  and  O_22
REMARK    3  A    between atoms: C_8  and  O_24
REMARK    4  A    between atoms: C_10  and  O_26
REMARK    5  A    between atoms: C_15  and  O_18
REMARK    6  A    between atoms: C_17  and  O_20
REMARK                            x       y       z     vdW  Elec       q    Type
REMARK                         _______ _______ _______ _____ _____    ______ ____
ROOT
ATOM      1  O   UNL     1      -1.280 -17.038 -13.491  0.00  0.00    +0.000 OA
ATOM      2  O   UNL     1      -1.348 -19.839 -16.436  0.00  0.00    +0.000 OA
ATOM      3  C   UNL     1      -2.426 -18.074 -15.360  0.00  0.00    +0.000 A 
ATOM      4  C   UNL     1      -2.353 -17.138 -14.335  0.00  0.00    +0.000 A 
ATOM      5  C   UNL     1      -0.204 -17.895 -13.670  0.00  0.00    +0.000 A 
ATOM      6  C   UNL     1      -0.143 -18.859 -14.614  0.00  0.00    +0.000 A 
ATOM      7  C   UNL     1      -1.301 -18.997 -15.543  0.00  0.00    +0.000 A 
ATOM      8  C   UNL     1      -3.557 -18.121 -16.186  0.00  0.00    +0.000 A 
ATOM      9  C   UNL     1      -3.402 -16.245 -14.127  0.00  0.00    +0.000 A 
ATOM     10  C   UNL     1      -4.521 -16.299 -14.953  0.00  0.00    +0.000 A 
ATOM     11  C   UNL     1      -4.607 -17.231 -15.982  0.00  0.00    +0.000 A 
ENDROOT
BRANCH   5  12
ATOM     12  C   UNL     1       0.870 -17.641 -12.700  0.00  0.00    +0.000 A 
ATOM     13  C   UNL     1       1.442 -18.687 -11.968  0.00  0.00    +0.000 A 
ATOM     14  C   UNL     1       1.374 -16.342 -12.548  0.00  0.00    +0.000 A 
ATOM     15  C   UNL     1       2.481 -18.423 -11.086  0.00  0.00    +0.000 A 
ATOM     16  C   UNL     1       2.429 -16.084 -11.673  0.00  0.00    +0.000 A 
ATOM     17  C   UNL     1       2.987 -17.134 -10.959  0.00  0.00    +0.000 A 
BRANCH  15  18
ATOM     18  O   UNL     1       2.969 -19.443 -10.323  0.00  0.00    +0.000 OA
ATOM     19  H   UNL     1       3.079 -19.096  -9.418  0.00  0.00    +0.000 HD
ENDBRANCH  15  18
BRANCH  17  20
ATOM     20  O   UNL     1       4.056 -16.889 -10.147  0.00  0.00    +0.000 OA
ATOM     21  H   UNL     1       4.052 -17.586  -9.464  0.00  0.00    +0.000 HD
ENDBRANCH  17  20
ENDBRANCH   5  12
BRANCH   6  22
ATOM     22  O   UNL     1       0.901 -19.748 -14.783  0.00  0.00    +0.000 OA
ATOM     23  H   UNL     1       1.413 -19.823 -13.962  0.00  0.00    +0.000 HD
ENDBRANCH   6  22
BRANCH   8  24
ATOM     24  O   UNL     1      -3.697 -19.016 -17.211  0.00  0.00    +0.000 OA
ATOM     25  H   UNL     1      -2.823 -19.443 -17.372  0.00  0.00    +0.000 HD
ENDBRANCH   8  24
BRANCH  10  26
ATOM     26  O   UNL     1      -5.535 -15.414 -14.730  0.00  0.00    +0.000 OA
ATOM     27  H   UNL     1      -5.851 -15.539 -13.817  0.00  0.00    +0.000 HD
ENDBRANCH  10  26
TORSDOF 6
ENDMDL
MODEL 8
REMARK VINA RESULT:      -5.2      9.656     11.675
REMARK  Name = Quercetin.pdbqt.pdb
REMARK  6 active torsions:
REMARK  status: ('A' for Active; 'I' for Inactive)
REMARK    1  A    between atoms: C_5  and  C_12
REMARK    2  A    between atoms: C_6  and  O_22
REMARK    3  A    between atoms: C_8  and  O_24
REMARK    4  A    between atoms: C_10  and  O_26
REMARK    5  A    between atoms: C_15  and  O_18
REMARK    6  A    between atoms: C_17  and  O_20
REMARK                            x       y       z     vdW  Elec       q    Type
REMARK                         _______ _______ _______ _____ _____    ______ ____
ROOT
ATOM      1  O   UNL     1       4.341 -32.725   3.840  0.00  0.00    +0.000 OA
ATOM      2  O   UNL     1       2.099 -33.433   0.524  0.00  0.00    +0.000 OA
ATOM      3  C   UNL     1       3.700 -32.111   1.584  0.00  0.00    +0.000 A 
ATOM      4  C   UNL     1       4.439 -31.912   2.744  0.00  0.00    +0.000 A 
ATOM      5  C   UNL     1       3.478 -33.810   3.794  0.00  0.00    +0.000 A 
ATOM      6  C   UNL     1       2.691 -34.117   2.741  0.00  0.00    +0.000 A 
ATOM      7  C   UNL     1       2.770 -33.244   1.535  0.00  0.00    +0.000 A 
ATOM      8  C   UNL     1       3.850 -31.237   0.499  0.00  0.00    +0.000 A 
ATOM      9  C   UNL     1       5.331 -30.844   2.831  0.00  0.00    +0.000 A 
ATOM     10  C   UNL     1       5.474 -29.983   1.748  0.00  0.00    +0.000 A 
ATOM     11  C   UNL     1       4.740 -30.170   0.581  0.00  0.00    +0.000 A 
ENDROOT
BRANCH   5  12
ATOM     12  C   UNL     1       3.509 -34.592   5.039  0.00  0.00    +0.000 A 
ATOM     13  C   UNL     1       2.969 -34.081   6.223  0.00  0.00    +0.000 A 
ATOM     14  C   UNL     1       4.031 -35.892   5.027  0.00  0.00    +0.000 A 
ATOM     15  C   UNL     1       2.979 -34.856   7.376  0.00  0.00    +0.000 A 
ATOM     16  C   UNL     1       4.023 -36.674   6.182  0.00  0.00    +0.000 A 
ATOM     17  C   UNL     1       3.479 -36.153   7.348  0.00  0.00    +0.000 A 
BRANCH  15  18
ATOM     18  O   UNL     1       2.522 -34.309   8.539  0.00  0.00    +0.000 OA
ATOM     19  H   UNL     1       3.300 -34.150   9.105  0.00  0.00    +0.000 HD
ENDBRANCH  15  18
BRANCH  17  20
ATOM     20  O   UNL     1       3.422 -36.940   8.461  0.00  0.00    +0.000 OA
ATOM     21  H   UNL     1       2.652 -37.528   8.346  0.00  0.00    +0.000 HD
ENDBRANCH  17  20
ENDBRANCH   5  12
BRANCH   6  22
ATOM     22  O   UNL     1       1.796 -35.169   2.691  0.00  0.00    +0.000 OA
ATOM     23  H   UNL     1       2.138 -35.924   3.196  0.00  0.00    +0.000 HD
ENDBRANCH   6  22
BRANCH   8  24
ATOM     24  O   UNL     1       3.154 -31.370  -0.671  0.00  0.00    +0.000 OA
ATOM     25  H   UNL     1       2.302 -31.826  -0.474  0.00  0.00    +0.000 HD
ENDBRANCH   8  24
BRANCH  10  26
ATOM     26  O   UNL     1       6.354 -28.945   1.857  0.00  0.00    +0.000 OA
ATOM     27  H   UNL     1       7.138 -29.262   2.339  0.00  0.00    +0.000 HD
ENDBRANCH  10  26
TORSDOF 6
ENDMDL
MODEL 9
REMARK VINA RESULT:      -5.1     19.935     21.299
REMARK  Name = Quercetin.pdbqt.pdb
REMARK  6 active torsions:
REMARK  status: ('A' for Active; 'I' for Inactive)
REMARK    1  A    between atoms: C_5  and  C_12
REMARK    2  A    between atoms: C_6  and  O_22
REMARK    3  A    between atoms: C_8  and  O_24
REMARK    4  A    between atoms: C_10  and  O_26
REMARK    5  A    between atoms: C_15  and  O_18
REMARK    6  A    between atoms: C_17  and  O_20
REMARK                            x       y       z     vdW  Elec       q    Type
REMARK                         _______ _______ _______ _____ _____    ______ ____
ROOT
ATOM      1  O   UNL     1      -2.925 -17.164 -15.127  0.00  0.00    +0.000 OA
ATOM      2  O   UNL     1      -3.000 -20.947 -16.612  0.00  0.00    +0.000 OA
ATOM      3  C   UNL     1      -4.174 -18.998 -16.104  0.00  0.00    +0.000 A 
ATOM      4  C   UNL     1      -4.092 -17.712 -15.583  0.00  0.00    +0.000 A 
ATOM      5  C   UNL     1      -1.759 -17.914 -15.199  0.00  0.00    +0.000 A 
ATOM      6  C   UNL     1      -1.692 -19.178 -15.668  0.00  0.00    +0.000 A 
ATOM      7  C   UNL     1      -2.951 -19.804 -16.165  0.00  0.00    +0.000 A 
ATOM      8  C   UNL     1      -5.405 -19.495 -16.552  0.00  0.00    +0.000 A 
ATOM      9  C   UNL     1      -5.233 -16.915 -15.506  0.00  0.00    +0.000 A 
ATOM     10  C   UNL     1      -6.451 -17.417 -15.954  0.00  0.00    +0.000 A 
ATOM     11  C   UNL     1      -6.546 -18.702 -16.477  0.00  0.00    +0.000 A 
ENDROOT
BRANCH   5  12
ATOM     12  C   UNL     1      -0.595 -17.174 -14.691  0.00  0.00    +0.000 A 
ATOM     13  C   UNL     1      -0.322 -17.114 -13.321  0.00  0.00    +0.000 A 
ATOM     14  C   UNL     1       0.289 -16.570 -15.594  0.00  0.00    +0.000 A 
ATOM     15  C   UNL     1       0.806 -16.439 -12.872  0.00  0.00    +0.000 A 
ATOM     16  C   UNL     1       1.429 -15.908 -15.142  0.00  0.00    +0.000 A 
ATOM     17  C   UNL     1       1.689 -15.862 -13.779  0.00  0.00    +0.000 A 
BRANCH  15  18
ATOM     18  O   UNL     1       1.010 -16.323 -11.529  0.00  0.00    +0.000 OA
ATOM     19  H   UNL     1       1.818 -16.828 -11.317  0.00  0.00    +0.000 HD
ENDBRANCH  15  18
BRANCH  17  20
ATOM     20  O   UNL     1       2.834 -15.263 -13.342  0.00  0.00    +0.000 OA
ATOM     21  H   UNL     1       2.607 -14.333 -13.155  0.00  0.00    +0.000 HD
ENDBRANCH  17  20
ENDBRANCH   5  12
BRANCH   6  22
ATOM     22  O   UNL     1      -0.550 -19.955 -15.711  0.00  0.00    +0.000 OA
ATOM     23  H   UNL     1      -0.072 -19.896 -14.869  0.00  0.00    +0.000 HD
ENDBRANCH   6  22
BRANCH   8  24
ATOM     24  O   UNL     1      -5.559 -20.751 -17.074  0.00  0.00    +0.000 OA
ATOM     25  H   UNL     1      -4.993 -20.823 -17.878  0.00  0.00    +0.000 HD
ENDBRANCH   8  24
BRANCH  10  26
ATOM     26  O   UNL     1      -7.553 -16.618 -15.868  0.00  0.00    +0.000 OA
ATOM     27  H   UNL     1      -8.198 -17.053 -15.282  0.00  0.00    +0.000 HD
ENDBRANCH  10  26
TORSDOF 6
ENDMDL
