MODEL 1
REMARK VINA RESULT:      -6.4      0.000      0.000
REMARK  Name = 
REMARK  14 active torsions:
REMARK  status: ('A' for Active; 'I' for Inactive)
REMARK    1  A    between atoms: O_1  and  C_24
REMARK    2  A    between atoms: O_1  and  C_36
REMARK    3  A    between atoms: O_4  and  C_30
REMARK    4  A    between atoms: O_4  and  C_37
REMARK    5  A    between atoms: O_7  and  C_33
REMARK    6  A    between atoms: O_7  and  C_38
REMARK    7  A    between atoms: N_10  and  C_23
REMARK    8  A    between atoms: C_15  and  C_26
REMARK    9  A    between atoms: C_16  and  C_24
REMARK   10  A    between atoms: C_31  and  C_34
REMARK   11  A    between atoms: C_32  and  C_35
REMARK   12  A    between atoms: C_36  and  C_39
REMARK   13  A    between atoms: C_39  and  C_40
REMARK   14  A    between atoms: C_41  and  C_42
REMARK                            x       y       z     vdW  Elec       q    Type
REMARK                         _______ _______ _______ _____ _____    ______ ____
ROOT
ATOM      1  O   UNL     1      -8.697 -35.790   1.163  0.00  0.00    +0.000 OA
ATOM      2  O   UNL     1      -9.235 -31.797  -2.306  0.00  0.00    +0.000 OA
ATOM      3  O   UNL     1      -4.460 -37.705   1.518  0.00  0.00    +0.000 OA
ATOM      4  O   UNL     1      -2.307 -37.050  -3.299  0.00  0.00    +0.000 OA
ATOM      5  N   UNL     1      -6.426 -36.052  -2.861  0.00  0.00    +0.000 NA
ATOM      6  N   UNL     1      -9.270 -36.784  -2.825  0.00  0.00    +0.000 NA
ATOM      7  C   UNL     1      -7.020 -36.893  -1.790  0.00  0.00    +0.000 C 
ATOM      8  C   UNL     1      -8.548 -36.538  -1.544  0.00  0.00    +0.000 C 
ATOM      9  C   UNL     1      -8.767 -35.830  -3.847  0.00  0.00    +0.000 C 
ATOM     10  C   UNL     1      -7.239 -36.100  -4.118  0.00  0.00    +0.000 C 
ATOM     11  C   UNL     1      -4.963 -36.215  -3.091  0.00  0.00    +0.000 C 
ATOM     12  C   UNL     1      -6.201 -36.782  -0.486  0.00  0.00    +0.000 C 
ATOM     13  C   UNL     1      -9.003 -34.351  -3.434  0.00  0.00    +0.000 C 
ATOM     14  C   UNL     1      -8.718 -35.099  -1.078  0.00  0.00    +0.000 C 
ATOM     15  C   UNL     1      -8.904 -34.098  -1.951  0.00  0.00    +0.000 C 
ATOM     16  C   UNL     1      -4.190 -36.793  -1.916  0.00  0.00    +0.000 C 
ATOM     17  C   UNL     1      -4.743 -37.030  -0.720  0.00  0.00    +0.000 C 
ATOM     18  C   UNL     1     -10.723 -36.796  -2.686  0.00  0.00    +0.000 C 
ATOM     19  C   UNL     1      -8.734 -34.845   0.381  0.00  0.00    +0.000 C 
ATOM     20  C   UNL     1      -9.057 -32.700  -1.496  0.00  0.00    +0.000 C 
ATOM     21  C   UNL     1      -3.948 -37.545   0.416  0.00  0.00    +0.000 C 
ATOM     22  C   UNL     1      -2.767 -37.145  -2.166  0.00  0.00    +0.000 C 
ATOM     23  C   UNL     1      -8.794 -33.421   0.846  0.00  0.00    +0.000 C 
ATOM     24  C   UNL     1      -8.969 -32.426  -0.039  0.00  0.00    +0.000 C 
ATOM     25  C   UNL     1      -2.508 -37.826   0.192  0.00  0.00    +0.000 C 
ATOM     26  C   UNL     1      -1.941 -37.622  -1.009  0.00  0.00    +0.000 C 
ATOM     27  C   UNL     1      -9.096 -30.979   0.340  0.00  0.00    +0.000 C 
ATOM     28  C   UNL     1      -1.768 -38.338   1.394  0.00  0.00    +0.000 C 
ENDROOT
BRANCH  23  29
ATOM     29  O   UNL     1      -8.735 -33.111   2.200  0.00  0.00    +0.000 OA
ATOM     30  C   UNL     1      -9.964 -33.229   2.911  0.00  0.00    +0.000 C 
ENDBRANCH  23  29
BRANCH  26  31
ATOM     31  O   UNL     1      -0.594 -37.923  -1.177  0.00  0.00    +0.000 OA
ATOM     32  C   UNL     1      -0.326 -39.220  -1.704  0.00  0.00    +0.000 C 
ENDBRANCH  26  31
BRANCH  10  34
ATOM     33  N   UNL     1      -7.030 -38.343  -5.519  0.00  0.00    +0.000 NA
ATOM     34  C   UNL     1      -7.111 -37.371  -4.890  0.00  0.00    +0.000 C 
ENDBRANCH  10  34
BRANCH  11  35
ATOM     35  C   UNL     1      -4.391 -34.816  -3.467  0.00  0.00    +0.000 C 
BRANCH  35  36
ATOM     36  O   UNL     1      -4.282 -34.719  -4.903  0.00  0.00    +0.000 OA
BRANCH  36  38
ATOM     37  O   UNL     1      -2.121 -33.999  -4.660  0.00  0.00    +0.000 OA
ATOM     38  C   UNL     1      -3.071 -34.320  -5.356  0.00  0.00    +0.000 C 
BRANCH  38  39
ATOM     39  C   UNL     1      -2.996 -34.452  -6.839  0.00  0.00    +0.000 C 
ATOM     40  C   UNL     1      -2.528 -35.806  -7.292  0.00  0.00    +0.000 C 
ATOM     41  C   UNL     1      -3.294 -33.474  -7.717  0.00  0.00    +0.000 C 
ATOM     42  C   UNL     1      -3.672 -32.055  -7.432  0.00  0.00    +0.000 C 
ENDBRANCH  38  39
ENDBRANCH  36  38
ENDBRANCH  35  36
ENDBRANCH  11  35
TORSDOF 7
ENDMDL
MODEL 2
REMARK VINA RESULT:      -6.4      2.898      6.437
REMARK  Name = 
REMARK  14 active torsions:
REMARK  status: ('A' for Active; 'I' for Inactive)
REMARK    1  A    between atoms: O_1  and  C_24
REMARK    2  A    between atoms: O_1  and  C_36
REMARK    3  A    between atoms: O_4  and  C_30
REMARK    4  A    between atoms: O_4  and  C_37
REMARK    5  A    between atoms: O_7  and  C_33
REMARK    6  A    between atoms: O_7  and  C_38
REMARK    7  A    between atoms: N_10  and  C_23
REMARK    8  A    between atoms: C_15  and  C_26
REMARK    9  A    between atoms: C_16  and  C_24
REMARK   10  A    between atoms: C_31  and  C_34
REMARK   11  A    between atoms: C_32  and  C_35
REMARK   12  A    between atoms: C_36  and  C_39
REMARK   13  A    between atoms: C_39  and  C_40
REMARK   14  A    between atoms: C_41  and  C_42
REMARK                            x       y       z     vdW  Elec       q    Type
REMARK                         _______ _______ _______ _____ _____    ______ ____
ROOT
ATOM      1  O   UNL     1      -6.328 -34.066  -2.530  0.00  0.00    +0.000 OA
ATOM      2  O   UNL     1      -8.052 -39.080  -2.916  0.00  0.00    +0.000 OA
ATOM      3  O   UNL     1      -4.133 -32.308  -6.251  0.00  0.00    +0.000 OA
ATOM      4  O   UNL     1      -1.877 -36.528  -8.568  0.00  0.00    +0.000 OA
ATOM      5  N   UNL     1      -3.675 -37.137  -4.754  0.00  0.00    +0.000 NA
ATOM      6  N   UNL     1      -3.580 -37.093  -1.818  0.00  0.00    +0.000 NA
ATOM      7  C   UNL     1      -3.609 -35.872  -3.976  0.00  0.00    +0.000 C 
ATOM      8  C   UNL     1      -4.305 -36.019  -2.556  0.00  0.00    +0.000 C 
ATOM      9  C   UNL     1      -3.782 -38.381  -2.530  0.00  0.00    +0.000 C 
ATOM     10  C   UNL     1      -3.146 -38.298  -3.969  0.00  0.00    +0.000 C 
ATOM     11  C   UNL     1      -3.161 -37.079  -6.150  0.00  0.00    +0.000 C 
ATOM     12  C   UNL     1      -4.215 -34.702  -4.780  0.00  0.00    +0.000 C 
ATOM     13  C   UNL     1      -5.283 -38.777  -2.612  0.00  0.00    +0.000 C 
ATOM     14  C   UNL     1      -5.786 -36.341  -2.692  0.00  0.00    +0.000 C 
ATOM     15  C   UNL     1      -6.226 -37.608  -2.739  0.00  0.00    +0.000 C 
ATOM     16  C   UNL     1      -3.126 -35.687  -6.763  0.00  0.00    +0.000 C 
ATOM     17  C   UNL     1      -3.626 -34.606  -6.154  0.00  0.00    +0.000 C 
ATOM     18  C   UNL     1      -3.899 -37.143  -0.395  0.00  0.00    +0.000 C 
ATOM     19  C   UNL     1      -6.739 -35.208  -2.709  0.00  0.00    +0.000 C 
ATOM     20  C   UNL     1      -7.664 -37.917  -2.883  0.00  0.00    +0.000 C 
ATOM     21  C   UNL     1      -3.622 -33.276  -6.802  0.00  0.00    +0.000 C 
ATOM     22  C   UNL     1      -2.449 -35.559  -8.081  0.00  0.00    +0.000 C 
ATOM     23  C   UNL     1      -8.188 -35.510  -2.949  0.00  0.00    +0.000 C 
ATOM     24  C   UNL     1      -8.614 -36.782  -3.006  0.00  0.00    +0.000 C 
ATOM     25  C   UNL     1      -3.015 -33.158  -8.152  0.00  0.00    +0.000 C 
ATOM     26  C   UNL     1      -2.482 -34.226  -8.767  0.00  0.00    +0.000 C 
ATOM     27  C   UNL     1     -10.051 -37.178  -3.187  0.00  0.00    +0.000 C 
ATOM     28  C   UNL     1      -3.056 -31.779  -8.745  0.00  0.00    +0.000 C 
ENDROOT
BRANCH  23  29
ATOM     29  O   UNL     1      -9.122 -34.484  -3.053  0.00  0.00    +0.000 OA
ATOM     30  C   UNL     1      -9.570 -33.936  -1.817  0.00  0.00    +0.000 C 
ENDBRANCH  23  29
BRANCH  26  31
ATOM     31  O   UNL     1      -1.903 -34.060 -10.021  0.00  0.00    +0.000 OA
ATOM     32  C   UNL     1      -2.720 -34.462 -11.119  0.00  0.00    +0.000 C 
ENDBRANCH  26  31
BRANCH  10  34
ATOM     33  N   UNL     1      -0.501 -38.344  -3.764  0.00  0.00    +0.000 NA
ATOM     34  C   UNL     1      -1.660 -38.327  -3.832  0.00  0.00    +0.000 C 
ENDBRANCH  10  34
BRANCH  11  35
ATOM     35  C   UNL     1      -4.052 -38.019  -7.016  0.00  0.00    +0.000 C 
BRANCH  35  36
ATOM     36  O   UNL     1      -5.416 -37.938  -6.552  0.00  0.00    +0.000 OA
BRANCH  36  38
ATOM     37  O   UNL     1      -6.211 -37.622  -8.676  0.00  0.00    +0.000 OA
ATOM     38  C   UNL     1      -6.302 -37.483  -7.468  0.00  0.00    +0.000 C 
BRANCH  38  39
ATOM     39  C   UNL     1      -7.497 -36.895  -6.796  0.00  0.00    +0.000 C 
ATOM     40  C   UNL     1      -7.332 -35.441  -6.457  0.00  0.00    +0.000 C 
ATOM     41  C   UNL     1      -8.623 -37.572  -6.494  0.00  0.00    +0.000 C 
ATOM     42  C   UNL     1      -8.905 -39.031  -6.671  0.00  0.00    +0.000 C 
ENDBRANCH  38  39
ENDBRANCH  36  38
ENDBRANCH  35  36
ENDBRANCH  11  35
TORSDOF 7
ENDMDL
MODEL 3
REMARK VINA RESULT:      -6.0     21.944     25.190
REMARK  Name = 
REMARK  14 active torsions:
REMARK  status: ('A' for Active; 'I' for Inactive)
REMARK    1  A    between atoms: O_1  and  C_24
REMARK    2  A    between atoms: O_1  and  C_36
REMARK    3  A    between atoms: O_4  and  C_30
REMARK    4  A    between atoms: O_4  and  C_37
REMARK    5  A    between atoms: O_7  and  C_33
REMARK    6  A    between atoms: O_7  and  C_38
REMARK    7  A    between atoms: N_10  and  C_23
REMARK    8  A    between atoms: C_15  and  C_26
REMARK    9  A    between atoms: C_16  and  C_24
REMARK   10  A    between atoms: C_31  and  C_34
REMARK   11  A    between atoms: C_32  and  C_35
REMARK   12  A    between atoms: C_36  and  C_39
REMARK   13  A    between atoms: C_39  and  C_40
REMARK   14  A    between atoms: C_41  and  C_42
REMARK                            x       y       z     vdW  Elec       q    Type
REMARK                         _______ _______ _______ _____ _____    ______ ____
ROOT
ATOM      1  O   UNL     1      -3.299 -16.977 -20.572  0.00  0.00    +0.000 OA
ATOM      2  O   UNL     1      -2.047 -20.955 -17.275  0.00  0.00    +0.000 OA
ATOM      3  O   UNL     1      -3.513 -12.703 -18.720  0.00  0.00    +0.000 OA
ATOM      4  O   UNL     1      -4.935 -13.525 -13.663  0.00  0.00    +0.000 OA
ATOM      5  N   UNL     1      -5.012 -16.891 -16.274  0.00  0.00    +0.000 NA
ATOM      6  N   UNL     1      -6.352 -18.583 -18.266  0.00  0.00    +0.000 NA
ATOM      7  C   UNL     1      -5.288 -16.427 -17.659  0.00  0.00    +0.000 C 
ATOM      8  C   UNL     1      -5.285 -17.633 -18.693  0.00  0.00    +0.000 C 
ATOM      9  C   UNL     1      -5.984 -19.151 -16.944  0.00  0.00    +0.000 C 
ATOM     10  C   UNL     1      -5.931 -18.002 -15.868  0.00  0.00    +0.000 C 
ATOM     11  C   UNL     1      -4.870 -15.828 -15.241  0.00  0.00    +0.000 C 
ATOM     12  C   UNL     1      -4.291 -15.326 -18.079  0.00  0.00    +0.000 C 
ATOM     13  C   UNL     1      -4.637 -19.925 -16.993  0.00  0.00    +0.000 C 
ATOM     14  C   UNL     1      -3.925 -18.314 -18.751  0.00  0.00    +0.000 C 
ATOM     15  C   UNL     1      -3.627 -19.351 -17.954  0.00  0.00    +0.000 C 
ATOM     16  C   UNL     1      -4.510 -14.453 -15.780  0.00  0.00    +0.000 C 
ATOM     17  C   UNL     1      -4.222 -14.223 -17.067  0.00  0.00    +0.000 C 
ATOM     18  C   UNL     1      -6.681 -19.586 -19.275  0.00  0.00    +0.000 C 
ATOM     19  C   UNL     1      -2.958 -17.835 -19.764  0.00  0.00    +0.000 C 
ATOM     20  C   UNL     1      -2.302 -20.003 -18.004  0.00  0.00    +0.000 C 
ATOM     21  C   UNL     1      -3.824 -12.881 -17.548  0.00  0.00    +0.000 C 
ATOM     22  C   UNL     1      -4.540 -13.329 -14.808  0.00  0.00    +0.000 C 
ATOM     23  C   UNL     1      -1.580 -18.428 -19.758  0.00  0.00    +0.000 C 
ATOM     24  C   UNL     1      -1.290 -19.458 -18.946  0.00  0.00    +0.000 C 
ATOM     25  C   UNL     1      -3.780 -11.771 -16.565  0.00  0.00    +0.000 C 
ATOM     26  C   UNL     1      -4.094 -11.975 -15.275  0.00  0.00    +0.000 C 
ATOM     27  C   UNL     1       0.042 -20.149 -18.911  0.00  0.00    +0.000 C 
ATOM     28  C   UNL     1      -3.362 -10.443 -17.128  0.00  0.00    +0.000 C 
ENDROOT
BRANCH  23  29
ATOM     29  O   UNL     1      -0.602 -17.967 -20.632  0.00  0.00    +0.000 OA
ATOM     30  C   UNL     1       0.062 -16.770 -20.235  0.00  0.00    +0.000 C 
ENDBRANCH  23  29
BRANCH  26  31
ATOM     31  O   UNL     1      -4.060 -10.898 -14.396  0.00  0.00    +0.000 OA
ATOM     32  C   UNL     1      -2.868 -10.790 -13.620  0.00  0.00    +0.000 C 
ENDBRANCH  26  31
BRANCH  10  34
ATOM     33  N   UNL     1      -8.408 -17.243 -15.294  0.00  0.00    +0.000 NA
ATOM     34  C   UNL     1      -7.328 -17.570 -15.566  0.00  0.00    +0.000 C 
ENDBRANCH  10  34
BRANCH  11  35
ATOM     35  C   UNL     1      -3.784 -16.303 -14.229  0.00  0.00    +0.000 C 
BRANCH  35  36
ATOM     36  O   UNL     1      -2.885 -17.216 -14.893  0.00  0.00    +0.000 OA
BRANCH  36  38
ATOM     37  O   UNL     1      -1.298 -17.013 -13.254  0.00  0.00    +0.000 OA
ATOM     38  C   UNL     1      -1.620 -17.218 -14.413  0.00  0.00    +0.000 C 
BRANCH  38  39
ATOM     39  C   UNL     1      -0.657 -17.643 -15.470  0.00  0.00    +0.000 C 
ATOM     40  C   UNL     1      -0.055 -18.996 -15.215  0.00  0.00    +0.000 C 
ATOM     41  C   UNL     1      -0.325 -16.909 -16.550  0.00  0.00    +0.000 C 
ATOM     42  C   UNL     1      -0.751 -15.517 -16.894  0.00  0.00    +0.000 C 
ENDBRANCH  38  39
ENDBRANCH  36  38
ENDBRANCH  35  36
ENDBRANCH  11  35
TORSDOF 7
ENDMDL
MODEL 4
REMARK VINA RESULT:      -5.9     21.712     25.795
REMARK  Name = 
REMARK  14 active torsions:
REMARK  status: ('A' for Active; 'I' for Inactive)
REMARK    1  A    between atoms: O_1  and  C_24
REMARK    2  A    between atoms: O_1  and  C_36
REMARK    3  A    between atoms: O_4  and  C_30
REMARK    4  A    between atoms: O_4  and  C_37
REMARK    5  A    between atoms: O_7  and  C_33
REMARK    6  A    between atoms: O_7  and  C_38
REMARK    7  A    between atoms: N_10  and  C_23
REMARK    8  A    between atoms: C_15  and  C_26
REMARK    9  A    between atoms: C_16  and  C_24
REMARK   10  A    between atoms: C_31  and  C_34
REMARK   11  A    between atoms: C_32  and  C_35
REMARK   12  A    between atoms: C_36  and  C_39
REMARK   13  A    between atoms: C_39  and  C_40
REMARK   14  A    between atoms: C_41  and  C_42
REMARK                            x       y       z     vdW  Elec       q    Type
REMARK                         _______ _______ _______ _____ _____    ______ ____
ROOT
ATOM      1  O   UNL     1      -7.479 -11.873 -13.914  0.00  0.00    +0.000 OA
ATOM      2  O   UNL     1      -9.500 -10.706 -18.691  0.00  0.00    +0.000 OA
ATOM      3  O   UNL     1      -4.262 -15.244 -13.761  0.00  0.00    +0.000 OA
ATOM      4  O   UNL     1      -5.513 -18.448 -17.816  0.00  0.00    +0.000 OA
ATOM      5  N   UNL     1      -8.273 -15.342 -16.871  0.00  0.00    +0.000 NA
ATOM      6  N   UNL     1     -10.543 -14.284 -15.336  0.00  0.00    +0.000 NA
ATOM      7  C   UNL     1      -8.180 -15.032 -15.421  0.00  0.00    +0.000 C 
ATOM      8  C   UNL     1      -9.155 -13.847 -15.010  0.00  0.00    +0.000 C 
ATOM      9  C   UNL     1     -10.659 -14.445 -16.808  0.00  0.00    +0.000 C 
ATOM     10  C   UNL     1      -9.689 -15.585 -17.296  0.00  0.00    +0.000 C 
ATOM     11  C   UNL     1      -7.313 -16.356 -17.390  0.00  0.00    +0.000 C 
ATOM     12  C   UNL     1      -6.722 -14.725 -15.017  0.00  0.00    +0.000 C 
ATOM     13  C   UNL     1     -10.378 -13.118 -17.566  0.00  0.00    +0.000 C 
ATOM     14  C   UNL     1      -8.795 -12.555 -15.730  0.00  0.00    +0.000 C 
ATOM     15  C   UNL     1      -9.343 -12.237 -16.912  0.00  0.00    +0.000 C 
ATOM     16  C   UNL     1      -6.066 -16.552 -16.542  0.00  0.00    +0.000 C 
ATOM     17  C   UNL     1      -5.780 -15.796 -15.475  0.00  0.00    +0.000 C 
ATOM     18  C   UNL     1     -11.576 -13.439 -14.745  0.00  0.00    +0.000 C 
ATOM     19  C   UNL     1      -7.863 -11.625 -15.052  0.00  0.00    +0.000 C 
ATOM     20  C   UNL     1      -8.984 -10.988 -17.615  0.00  0.00    +0.000 C 
ATOM     21  C   UNL     1      -4.531 -15.981 -14.703  0.00  0.00    +0.000 C 
ATOM     22  C   UNL     1      -5.175 -17.679 -16.921  0.00  0.00    +0.000 C 
ATOM     23  C   UNL     1      -7.422 -10.402 -15.800  0.00  0.00    +0.000 C 
ATOM     24  C   UNL     1      -7.970 -10.101 -16.988  0.00  0.00    +0.000 C 
ATOM     25  C   UNL     1      -3.602 -17.058 -15.125  0.00  0.00    +0.000 C 
ATOM     26  C   UNL     1      -3.885 -17.845 -16.175  0.00  0.00    +0.000 C 
ATOM     27  C   UNL     1      -7.631  -8.872 -17.781  0.00  0.00    +0.000 C 
ATOM     28  C   UNL     1      -2.355 -17.178 -14.298  0.00  0.00    +0.000 C 
ENDROOT
BRANCH  23  29
ATOM     29  O   UNL     1      -6.490  -9.529 -15.250  0.00  0.00    +0.000 OA
ATOM     30  C   UNL     1      -7.004  -8.605 -14.294  0.00  0.00    +0.000 C 
ENDBRANCH  23  29
BRANCH  26  31
ATOM     31  O   UNL     1      -2.994 -18.857 -16.518  0.00  0.00    +0.000 OA
ATOM     32  C   UNL     1      -3.314 -20.145 -15.998  0.00  0.00    +0.000 C 
ENDBRANCH  26  31
BRANCH  10  34
ATOM     33  N   UNL     1     -10.702 -17.924 -16.560  0.00  0.00    +0.000 NA
ATOM     34  C   UNL     1     -10.247 -16.900 -16.864  0.00  0.00    +0.000 C 
ENDBRANCH  10  34
BRANCH  11  35
ATOM     35  C   UNL     1      -6.912 -15.923 -18.833  0.00  0.00    +0.000 C 
BRANCH  35  36
ATOM     36  O   UNL     1      -6.723 -14.493 -18.863  0.00  0.00    +0.000 OA
BRANCH  36  38
ATOM     37  O   UNL     1      -5.291 -13.954 -20.567  0.00  0.00    +0.000 OA
ATOM     38  C   UNL     1      -5.540 -14.087 -19.380  0.00  0.00    +0.000 C 
BRANCH  38  39
ATOM     39  C   UNL     1      -4.602 -13.684 -18.293  0.00  0.00    +0.000 C 
ATOM     40  C   UNL     1      -5.065 -12.478 -17.526  0.00  0.00    +0.000 C 
ATOM     41  C   UNL     1      -3.440 -14.306 -18.008  0.00  0.00    +0.000 C 
ATOM     42  C   UNL     1      -2.794 -15.444 -18.732  0.00  0.00    +0.000 C 
ENDBRANCH  38  39
ENDBRANCH  36  38
ENDBRANCH  35  36
ENDBRANCH  11  35
TORSDOF 7
ENDMDL
MODEL 5
REMARK VINA RESULT:      -5.9      5.563      8.929
REMARK  Name = 
REMARK  14 active torsions:
REMARK  status: ('A' for Active; 'I' for Inactive)
REMARK    1  A    between atoms: O_1  and  C_24
REMARK    2  A    between atoms: O_1  and  C_36
REMARK    3  A    between atoms: O_4  and  C_30
REMARK    4  A    between atoms: O_4  and  C_37
REMARK    5  A    between atoms: O_7  and  C_33
REMARK    6  A    between atoms: O_7  and  C_38
REMARK    7  A    between atoms: N_10  and  C_23
REMARK    8  A    between atoms: C_15  and  C_26
REMARK    9  A    between atoms: C_16  and  C_24
REMARK   10  A    between atoms: C_31  and  C_34
REMARK   11  A    between atoms: C_32  and  C_35
REMARK   12  A    between atoms: C_36  and  C_39
REMARK   13  A    between atoms: C_39  and  C_40
REMARK   14  A    between atoms: C_41  and  C_42
REMARK                            x       y       z     vdW  Elec       q    Type
REMARK                         _______ _______ _______ _____ _____    ______ ____
ROOT
ATOM      1  O   UNL     1      -1.682 -34.727 -10.737  0.00  0.00    +0.000 OA
ATOM      2  O   UNL     1      -6.956 -34.160 -11.105  0.00  0.00    +0.000 OA
ATOM      3  O   UNL     1      -0.128 -38.505  -8.489  0.00  0.00    +0.000 OA
ATOM      4  O   UNL     1      -3.937 -39.590  -4.941  0.00  0.00    +0.000 OA
ATOM      5  N   UNL     1      -4.281 -35.935  -7.104  0.00  0.00    +0.000 NA
ATOM      6  N   UNL     1      -3.662 -33.088  -7.478  0.00  0.00    +0.000 NA
ATOM      7  C   UNL     1      -2.923 -35.455  -7.470  0.00  0.00    +0.000 C 
ATOM      8  C   UNL     1      -2.983 -34.115  -8.320  0.00  0.00    +0.000 C 
ATOM      9  C   UNL     1      -5.066 -33.513  -7.247  0.00  0.00    +0.000 C 
ATOM     10  C   UNL     1      -5.086 -34.863  -6.436  0.00  0.00    +0.000 C 
ATOM     11  C   UNL     1      -4.349 -37.251  -6.410  0.00  0.00    +0.000 C 
ATOM     12  C   UNL     1      -2.133 -36.555  -8.211  0.00  0.00    +0.000 C 
ATOM     13  C   UNL     1      -5.862 -33.654  -8.575  0.00  0.00    +0.000 C 
ATOM     14  C   UNL     1      -3.714 -34.324  -9.639  0.00  0.00    +0.000 C 
ATOM     15  C   UNL     1      -5.038 -34.132  -9.744  0.00  0.00    +0.000 C 
ATOM     16  C   UNL     1      -3.142 -38.151  -6.621  0.00  0.00    +0.000 C 
ATOM     17  C   UNL     1      -2.142 -37.850  -7.458  0.00  0.00    +0.000 C 
ATOM     18  C   UNL     1      -3.527 -31.729  -7.992  0.00  0.00    +0.000 C 
ATOM     19  C   UNL     1      -2.905 -34.688 -10.824  0.00  0.00    +0.000 C 
ATOM     20  C   UNL     1      -5.747 -34.347 -11.022  0.00  0.00    +0.000 C 
ATOM     21  C   UNL     1      -1.007 -38.774  -7.678  0.00  0.00    +0.000 C 
ATOM     22  C   UNL     1      -3.085 -39.389  -5.801  0.00  0.00    +0.000 C 
ATOM     23  C   UNL     1      -3.628 -34.999 -12.101  0.00  0.00    +0.000 C 
ATOM     24  C   UNL     1      -4.955 -34.814 -12.190  0.00  0.00    +0.000 C 
ATOM     25  C   UNL     1      -0.985 -40.048  -6.917  0.00  0.00    +0.000 C 
ATOM     26  C   UNL     1      -1.964 -40.354  -6.051  0.00  0.00    +0.000 C 
ATOM     27  C   UNL     1      -5.753 -35.046 -13.440  0.00  0.00    +0.000 C 
ATOM     28  C   UNL     1       0.194 -40.934  -7.201  0.00  0.00    +0.000 C 
ENDROOT
BRANCH  23  29
ATOM     29  O   UNL     1      -2.933 -35.421 -13.229  0.00  0.00    +0.000 OA
ATOM     30  C   UNL     1      -2.570 -36.799 -13.246  0.00  0.00    +0.000 C 
ENDBRANCH  23  29
BRANCH  26  31
ATOM     31  O   UNL     1      -1.887 -41.549  -5.344  0.00  0.00    +0.000 OA
ATOM     32  C   UNL     1      -2.671 -42.616  -5.875  0.00  0.00    +0.000 C 
ENDBRANCH  26  31
BRANCH  10  34
ATOM     33  N   UNL     1      -4.357 -34.386  -3.930  0.00  0.00    +0.000 NA
ATOM     34  C   UNL     1      -4.685 -34.575  -5.027  0.00  0.00    +0.000 C 
ENDBRANCH  10  34
BRANCH  11  35
ATOM     35  C   UNL     1      -5.641 -37.971  -6.900  0.00  0.00    +0.000 C 
BRANCH  35  36
ATOM     36  O   UNL     1      -5.918 -37.574  -8.260  0.00  0.00    +0.000 OA
BRANCH  36  38
ATOM     37  O   UNL     1      -7.317 -38.905  -9.492  0.00  0.00    +0.000 OA
ATOM     38  C   UNL     1      -6.203 -38.594  -9.103  0.00  0.00    +0.000 C 
BRANCH  38  39
ATOM     39  C   UNL     1      -4.949 -39.218  -9.614  0.00  0.00    +0.000 C 
ATOM     40  C   UNL     1      -4.233 -38.370 -10.627  0.00  0.00    +0.000 C 
ATOM     41  C   UNL     1      -4.481 -40.426  -9.242  0.00  0.00    +0.000 C 
ATOM     42  C   UNL     1      -5.119 -41.428  -8.332  0.00  0.00    +0.000 C 
ENDBRANCH  38  39
ENDBRANCH  36  38
ENDBRANCH  35  36
ENDBRANCH  11  35
TORSDOF 7
ENDMDL
MODEL 6
REMARK VINA RESULT:      -5.8      2.047      7.425
REMARK  Name = 
REMARK  14 active torsions:
REMARK  status: ('A' for Active; 'I' for Inactive)
REMARK    1  A    between atoms: O_1  and  C_24
REMARK    2  A    between atoms: O_1  and  C_36
REMARK    3  A    between atoms: O_4  and  C_30
REMARK    4  A    between atoms: O_4  and  C_37
REMARK    5  A    between atoms: O_7  and  C_33
REMARK    6  A    between atoms: O_7  and  C_38
REMARK    7  A    between atoms: N_10  and  C_23
REMARK    8  A    between atoms: C_15  and  C_26
REMARK    9  A    between atoms: C_16  and  C_24
REMARK   10  A    between atoms: C_31  and  C_34
REMARK   11  A    between atoms: C_32  and  C_35
REMARK   12  A    between atoms: C_36  and  C_39
REMARK   13  A    between atoms: C_39  and  C_40
REMARK   14  A    between atoms: C_41  and  C_42
REMARK                            x       y       z     vdW  Elec       q    Type
REMARK                         _______ _______ _______ _____ _____    ______ ____
ROOT
ATOM      1  O   UNL     1      -3.045 -35.036  -2.930  0.00  0.00    +0.000 OA
ATOM      2  O   UNL     1      -4.034 -40.252  -3.229  0.00  0.00    +0.000 OA
ATOM      3  O   UNL     1      -6.341 -32.383  -0.970  0.00  0.00    +0.000 OA
ATOM      4  O   UNL     1     -10.884 -34.945  -2.003  0.00  0.00    +0.000 OA
ATOM      5  N   UNL     1      -7.358 -36.403  -3.899  0.00  0.00    +0.000 NA
ATOM      6  N   UNL     1      -5.395 -36.360  -6.083  0.00  0.00    +0.000 NA
ATOM      7  C   UNL     1      -6.410 -35.276  -4.097  0.00  0.00    +0.000 C 
ATOM      8  C   UNL     1      -5.051 -35.762  -4.761  0.00  0.00    +0.000 C 
ATOM      9  C   UNL     1      -6.221 -37.573  -5.858  0.00  0.00    +0.000 C 
ATOM     10  C   UNL     1      -7.578 -37.172  -5.166  0.00  0.00    +0.000 C 
ATOM     11  C   UNL     1      -8.618 -36.083  -3.171  0.00  0.00    +0.000 C 
ATOM     12  C   UNL     1      -6.151 -34.536  -2.768  0.00  0.00    +0.000 C 
ATOM     13  C   UNL     1      -5.470 -38.647  -5.023  0.00  0.00    +0.000 C 
ATOM     14  C   UNL     1      -4.323 -36.761  -3.873  0.00  0.00    +0.000 C 
ATOM     15  C   UNL     1      -4.536 -38.081  -3.983  0.00  0.00    +0.000 C 
ATOM     16  C   UNL     1      -8.554 -34.841  -2.295  0.00  0.00    +0.000 C 
ATOM     17  C   UNL     1      -7.429 -34.147  -2.089  0.00  0.00    +0.000 C 
ATOM     18  C   UNL     1      -4.238 -36.578  -6.946  0.00  0.00    +0.000 C 
ATOM     19  C   UNL     1      -3.321 -36.232  -2.920  0.00  0.00    +0.000 C 
ATOM     20  C   UNL     1      -3.836 -39.048  -3.111  0.00  0.00    +0.000 C 
ATOM     21  C   UNL     1      -7.393 -32.973  -1.189  0.00  0.00    +0.000 C 
ATOM     22  C   UNL     1      -9.837 -34.382  -1.700  0.00  0.00    +0.000 C 
ATOM     23  C   UNL     1      -2.676 -37.196  -1.969  0.00  0.00    +0.000 C 
ATOM     24  C   UNL     1      -2.906 -38.514  -2.082  0.00  0.00    +0.000 C 
ATOM     25  C   UNL     1      -8.656 -32.557  -0.532  0.00  0.00    +0.000 C 
ATOM     26  C   UNL     1      -9.802 -33.223  -0.749  0.00  0.00    +0.000 C 
ATOM     27  C   UNL     1      -2.264 -39.555  -1.212  0.00  0.00    +0.000 C 
ATOM     28  C   UNL     1      -8.537 -31.363   0.371  0.00  0.00    +0.000 C 
ENDROOT
BRANCH  23  29
ATOM     29  O   UNL     1      -1.784 -36.752  -1.000  0.00  0.00    +0.000 OA
ATOM     30  C   UNL     1      -2.325 -36.605   0.311  0.00  0.00    +0.000 C 
ENDBRANCH  23  29
BRANCH  26  31
ATOM     31  O   UNL     1     -10.966 -32.780  -0.130  0.00  0.00    +0.000 OA
ATOM     32  C   UNL     1     -11.346 -33.513   1.033  0.00  0.00    +0.000 C 
ENDBRANCH  26  31
BRANCH  10  34
ATOM     33  N   UNL     1      -9.134 -35.957  -6.937  0.00  0.00    +0.000 NA
ATOM     34  C   UNL     1      -8.436 -36.478  -6.170  0.00  0.00    +0.000 C 
ENDBRANCH  10  34
BRANCH  11  35
ATOM     35  C   UNL     1      -8.986 -37.325  -2.306  0.00  0.00    +0.000 C 
BRANCH  35  36
ATOM     36  O   UNL     1      -7.788 -37.848  -1.695  0.00  0.00    +0.000 OA
BRANCH  36  38
ATOM     37  O   UNL     1      -8.778 -38.070   0.359  0.00  0.00    +0.000 OA
ATOM     38  C   UNL     1      -7.800 -37.865  -0.342  0.00  0.00    +0.000 C 
BRANCH  38  39
ATOM     39  C   UNL     1      -6.416 -37.731   0.198  0.00  0.00    +0.000 C 
ATOM     40  C   UNL     1      -6.038 -36.313   0.517  0.00  0.00    +0.000 C 
ATOM     41  C   UNL     1      -5.558 -38.754   0.381  0.00  0.00    +0.000 C 
ATOM     42  C   UNL     1      -5.740 -40.195   0.022  0.00  0.00    +0.000 C 
ENDBRANCH  38  39
ENDBRANCH  36  38
ENDBRANCH  35  36
ENDBRANCH  11  35
TORSDOF 7
ENDMDL
MODEL 7
REMARK VINA RESULT:      -5.7     15.861     19.911
REMARK  Name = 
REMARK  14 active torsions:
REMARK  status: ('A' for Active; 'I' for Inactive)
REMARK    1  A    between atoms: O_1  and  C_24
REMARK    2  A    between atoms: O_1  and  C_36
REMARK    3  A    between atoms: O_4  and  C_30
REMARK    4  A    between atoms: O_4  and  C_37
REMARK    5  A    between atoms: O_7  and  C_33
REMARK    6  A    between atoms: O_7  and  C_38
REMARK    7  A    between atoms: N_10  and  C_23
REMARK    8  A    between atoms: C_15  and  C_26
REMARK    9  A    between atoms: C_16  and  C_24
REMARK   10  A    between atoms: C_31  and  C_34
REMARK   11  A    between atoms: C_32  and  C_35
REMARK   12  A    between atoms: C_36  and  C_39
REMARK   13  A    between atoms: C_39  and  C_40
REMARK   14  A    between atoms: C_41  and  C_42
REMARK                            x       y       z     vdW  Elec       q    Type
REMARK                         _______ _______ _______ _____ _____    ______ ____
ROOT
ATOM      1  O   UNL     1     -11.950 -16.855   5.022  0.00  0.00    +0.000 OA
ATOM      2  O   UNL     1     -11.924 -14.476   0.267  0.00  0.00    +0.000 OA
ATOM      3  O   UNL     1     -12.631 -21.468   5.059  0.00  0.00    +0.000 OA
ATOM      4  O   UNL     1     -15.616 -22.396   0.758  0.00  0.00    +0.000 OA
ATOM      5  N   UNL     1     -14.945 -18.323   1.814  0.00  0.00    +0.000 NA
ATOM      6  N   UNL     1     -15.622 -15.905   3.338  0.00  0.00    +0.000 NA
ATOM      7  C   UNL     1     -14.751 -18.226   3.284  0.00  0.00    +0.000 C 
ATOM      8  C   UNL     1     -14.450 -16.735   3.740  0.00  0.00    +0.000 C 
ATOM      9  C   UNL     1     -15.711 -15.892   1.855  0.00  0.00    +0.000 C 
ATOM     10  C   UNL     1     -15.975 -17.351   1.325  0.00  0.00    +0.000 C 
ATOM     11  C   UNL     1     -15.111 -19.696   1.261  0.00  0.00    +0.000 C 
ATOM     12  C   UNL     1     -13.643 -19.192   3.757  0.00  0.00    +0.000 C 
ATOM     13  C   UNL     1     -14.441 -15.285   1.197  0.00  0.00    +0.000 C 
ATOM     14  C   UNL     1     -13.161 -16.212   3.120  0.00  0.00    +0.000 C 
ATOM     15  C   UNL     1     -13.161 -15.568   1.944  0.00  0.00    +0.000 C 
ATOM     16  C   UNL     1     -14.561 -20.811   2.136  0.00  0.00    +0.000 C 
ATOM     17  C   UNL     1     -13.871 -20.587   3.261  0.00  0.00    +0.000 C 
ATOM     18  C   UNL     1     -15.638 -14.579   3.948  0.00  0.00    +0.000 C 
ATOM     19  C   UNL     1     -11.908 -16.384   3.890  0.00  0.00    +0.000 C 
ATOM     20  C   UNL     1     -11.907 -15.072   1.339  0.00  0.00    +0.000 C 
ATOM     21  C   UNL     1     -13.305 -21.695   4.061  0.00  0.00    +0.000 C 
ATOM     22  C   UNL     1     -14.871 -22.202   1.713  0.00  0.00    +0.000 C 
ATOM     23  C   UNL     1     -10.621 -15.967   3.242  0.00  0.00    +0.000 C 
ATOM     24  C   UNL     1     -10.634 -15.333   2.058  0.00  0.00    +0.000 C 
ATOM     25  C   UNL     1     -13.548 -23.085   3.600  0.00  0.00    +0.000 C 
ATOM     26  C   UNL     1     -14.263 -23.332   2.490  0.00  0.00    +0.000 C 
ATOM     27  C   UNL     1      -9.402 -14.833   1.362  0.00  0.00    +0.000 C 
ATOM     28  C   UNL     1     -12.936 -24.153   4.460  0.00  0.00    +0.000 C 
ENDROOT
BRANCH  23  29
ATOM     29  O   UNL     1      -9.403 -16.172   3.880  0.00  0.00    +0.000 OA
ATOM     30  C   UNL     1      -8.845 -17.475   3.732  0.00  0.00    +0.000 C 
ENDBRANCH  23  29
BRANCH  26  31
ATOM     31  O   UNL     1     -14.484 -24.651   2.111  0.00  0.00    +0.000 OA
ATOM     32  C   UNL     1     -15.725 -25.204   2.545  0.00  0.00    +0.000 C 
ENDBRANCH  26  31
BRANCH  10  34
ATOM     33  N   UNL     1     -18.465 -18.034   1.933  0.00  0.00    +0.000 NA
ATOM     34  C   UNL     1     -17.382 -17.727   1.649  0.00  0.00    +0.000 C 
ENDBRANCH  10  34
BRANCH  11  35
ATOM     35  C   UNL     1     -14.419 -19.725  -0.135  0.00  0.00    +0.000 C 
BRANCH  35  36
ATOM     36  O   UNL     1     -15.427 -19.644  -1.165  0.00  0.00    +0.000 OA
BRANCH  36  38
ATOM     37  O   UNL     1     -14.739 -19.696  -3.349  0.00  0.00    +0.000 OA
ATOM     38  C   UNL     1     -15.009 -19.088  -2.326  0.00  0.00    +0.000 C 
BRANCH  38  39
ATOM     39  C   UNL     1     -15.049 -17.600  -2.240  0.00  0.00    +0.000 C 
ATOM     40  C   UNL     1     -13.693 -16.979  -2.050  0.00  0.00    +0.000 C 
ATOM     41  C   UNL     1     -16.169 -16.853  -2.307  0.00  0.00    +0.000 C 
ATOM     42  C   UNL     1     -17.589 -17.316  -2.391  0.00  0.00    +0.000 C 
ENDBRANCH  38  39
ENDBRANCH  36  38
ENDBRANCH  35  36
ENDBRANCH  11  35
TORSDOF 7
ENDMDL
MODEL 8
REMARK VINA RESULT:      -5.7      2.581      5.474
REMARK  Name = 
REMARK  14 active torsions:
REMARK  status: ('A' for Active; 'I' for Inactive)
REMARK    1  A    between atoms: O_1  and  C_24
REMARK    2  A    between atoms: O_1  and  C_36
REMARK    3  A    between atoms: O_4  and  C_30
REMARK    4  A    between atoms: O_4  and  C_37
REMARK    5  A    between atoms: O_7  and  C_33
REMARK    6  A    between atoms: O_7  and  C_38
REMARK    7  A    between atoms: N_10  and  C_23
REMARK    8  A    between atoms: C_15  and  C_26
REMARK    9  A    between atoms: C_16  and  C_24
REMARK   10  A    between atoms: C_31  and  C_34
REMARK   11  A    between atoms: C_32  and  C_35
REMARK   12  A    between atoms: C_36  and  C_39
REMARK   13  A    between atoms: C_39  and  C_40
REMARK   14  A    between atoms: C_41  and  C_42
REMARK                            x       y       z     vdW  Elec       q    Type
REMARK                         _______ _______ _______ _____ _____    ______ ____
ROOT
ATOM      1  O   UNL     1      -3.952 -33.792  -4.239  0.00  0.00    +0.000 OA
ATOM      2  O   UNL     1      -7.882 -35.742  -7.242  0.00  0.00    +0.000 OA
ATOM      3  O   UNL     1      -2.101 -36.672  -1.073  0.00  0.00    +0.000 OA
ATOM      4  O   UNL     1      -6.084 -39.949   0.219  0.00  0.00    +0.000 OA
ATOM      5  N   UNL     1      -7.037 -36.616  -2.259  0.00  0.00    +0.000 NA
ATOM      6  N   UNL     1      -7.774 -33.796  -2.622  0.00  0.00    +0.000 NA
ATOM      7  C   UNL     1      -6.101 -35.501  -1.958  0.00  0.00    +0.000 C 
ATOM      8  C   UNL     1      -6.374 -34.239  -2.882  0.00  0.00    +0.000 C 
ATOM      9  C   UNL     1      -8.704 -34.864  -3.068  0.00  0.00    +0.000 C 
ATOM     10  C   UNL     1      -8.466 -36.167  -2.215  0.00  0.00    +0.000 C 
ATOM     11  C   UNL     1      -6.793 -37.894  -1.535  0.00  0.00    +0.000 C 
ATOM     12  C   UNL     1      -4.635 -35.971  -2.068  0.00  0.00    +0.000 C 
ATOM     13  C   UNL     1      -8.566 -35.165  -4.587  0.00  0.00    +0.000 C 
ATOM     14  C   UNL     1      -6.161 -34.570  -4.353  0.00  0.00    +0.000 C 
ATOM     15  C   UNL     1      -7.165 -35.014  -5.124  0.00  0.00    +0.000 C 
ATOM     16  C   UNL     1      -5.378 -38.072  -1.006  0.00  0.00    +0.000 C 
ATOM     17  C   UNL     1      -4.385 -37.212  -1.266  0.00  0.00    +0.000 C 
ATOM     18  C   UNL     1      -8.080 -32.475  -3.163  0.00  0.00    +0.000 C 
ATOM     19  C   UNL     1      -4.818 -34.324  -4.926  0.00  0.00    +0.000 C 
ATOM     20  C   UNL     1      -6.952 -35.345  -6.548  0.00  0.00    +0.000 C 
ATOM     21  C   UNL     1      -3.008 -37.443  -0.779  0.00  0.00    +0.000 C 
ATOM     22  C   UNL     1      -5.141 -39.242  -0.122  0.00  0.00    +0.000 C 
ATOM     23  C   UNL     1      -4.570 -34.745  -6.344  0.00  0.00    +0.000 C 
ATOM     24  C   UNL     1      -5.581 -35.200  -7.102  0.00  0.00    +0.000 C 
ATOM     25  C   UNL     1      -2.750 -38.652   0.042  0.00  0.00    +0.000 C 
ATOM     26  C   UNL     1      -3.739 -39.512   0.338  0.00  0.00    +0.000 C 
ATOM     27  C   UNL     1      -5.438 -35.591  -8.544  0.00  0.00    +0.000 C 
ATOM     28  C   UNL     1      -1.328 -38.820   0.492  0.00  0.00    +0.000 C 
ENDROOT
BRANCH  23  29
ATOM     29  O   UNL     1      -3.310 -34.613  -6.916  0.00  0.00    +0.000 OA
ATOM     30  C   UNL     1      -3.036 -33.348  -7.513  0.00  0.00    +0.000 C 
ENDBRANCH  23  29
BRANCH  26  31
ATOM     31  O   UNL     1      -3.454 -40.618   1.130  0.00  0.00    +0.000 OA
ATOM     32  C   UNL     1      -3.791 -40.476   2.509  0.00  0.00    +0.000 C 
ENDBRANCH  26  31
BRANCH  10  34
ATOM     33  N   UNL     1      -9.453 -35.764   0.214  0.00  0.00    +0.000 NA
ATOM     34  C   UNL     1      -9.001 -35.939  -0.841  0.00  0.00    +0.000 C 
ENDBRANCH  10  34
BRANCH  11  35
ATOM     35  C   UNL     1      -7.146 -39.058  -2.509  0.00  0.00    +0.000 C 
BRANCH  35  36
ATOM     36  O   UNL     1      -6.697 -38.716  -3.837  0.00  0.00    +0.000 OA
BRANCH  36  38
ATOM     37  O   UNL     1      -5.094 -40.348  -3.723  0.00  0.00    +0.000 OA
ATOM     38  C   UNL     1      -5.568 -39.348  -4.236  0.00  0.00    +0.000 C 
BRANCH  38  39
ATOM     39  C   UNL     1      -5.039 -38.736  -5.488  0.00  0.00    +0.000 C 
ATOM     40  C   UNL     1      -5.953 -38.911  -6.668  0.00  0.00    +0.000 C 
ATOM     41  C   UNL     1      -3.857 -38.097  -5.595  0.00  0.00    +0.000 C 
ATOM     42  C   UNL     1      -2.796 -37.927  -4.553  0.00  0.00    +0.000 C 
ENDBRANCH  38  39
ENDBRANCH  36  38
ENDBRANCH  35  36
ENDBRANCH  11  35
TORSDOF 7
ENDMDL
MODEL 9
REMARK VINA RESULT:      -5.6     22.560     26.311
REMARK  Name = 
REMARK  14 active torsions:
REMARK  status: ('A' for Active; 'I' for Inactive)
REMARK    1  A    between atoms: O_1  and  C_24
REMARK    2  A    between atoms: O_1  and  C_36
REMARK    3  A    between atoms: O_4  and  C_30
REMARK    4  A    between atoms: O_4  and  C_37
REMARK    5  A    between atoms: O_7  and  C_33
REMARK    6  A    between atoms: O_7  and  C_38
REMARK    7  A    between atoms: N_10  and  C_23
REMARK    8  A    between atoms: C_15  and  C_26
REMARK    9  A    between atoms: C_16  and  C_24
REMARK   10  A    between atoms: C_31  and  C_34
REMARK   11  A    between atoms: C_32  and  C_35
REMARK   12  A    between atoms: C_36  and  C_39
REMARK   13  A    between atoms: C_39  and  C_40
REMARK   14  A    between atoms: C_41  and  C_42
REMARK                            x       y       z     vdW  Elec       q    Type
REMARK                         _______ _______ _______ _____ _____    ______ ____
ROOT
ATOM      1  O   UNL     1      -4.872 -12.910 -18.654  0.00  0.00    +0.000 OA
ATOM      2  O   UNL     1      -4.736 -12.922 -13.339  0.00  0.00    +0.000 OA
ATOM      3  O   UNL     1      -8.767 -14.509 -20.658  0.00  0.00    +0.000 OA
ATOM      4  O   UNL     1     -10.664 -18.074 -17.199  0.00  0.00    +0.000 OA
ATOM      5  N   UNL     1      -6.794 -16.475 -16.414  0.00  0.00    +0.000 NA
ATOM      6  N   UNL     1      -3.879 -16.474 -16.773  0.00  0.00    +0.000 NA
ATOM      7  C   UNL     1      -6.148 -16.105 -17.700  0.00  0.00    +0.000 C 
ATOM      8  C   UNL     1      -4.715 -15.458 -17.474  0.00  0.00    +0.000 C 
ATOM      9  C   UNL     1      -4.456 -16.720 -15.427  0.00  0.00    +0.000 C 
ATOM     10  C   UNL     1      -5.899 -17.332 -15.571  0.00  0.00    +0.000 C 
ATOM     11  C   UNL     1      -8.193 -16.977 -16.499  0.00  0.00    +0.000 C 
ATOM     12  C   UNL     1      -7.061 -15.173 -18.525  0.00  0.00    +0.000 C 
ATOM     13  C   UNL     1      -4.485 -15.433 -14.557  0.00  0.00    +0.000 C 
ATOM     14  C   UNL     1      -4.807 -14.166 -16.675  0.00  0.00    +0.000 C 
ATOM     15  C   UNL     1      -4.723 -14.164 -15.336  0.00  0.00    +0.000 C 
ATOM     16  C   UNL     1      -8.944 -16.574 -17.759  0.00  0.00    +0.000 C 
ATOM     17  C   UNL     1      -8.443 -15.733 -18.672  0.00  0.00    +0.000 C 
ATOM     18  C   UNL     1      -2.455 -16.152 -16.761  0.00  0.00    +0.000 C 
ATOM     19  C   UNL     1      -4.932 -12.898 -17.428  0.00  0.00    +0.000 C 
ATOM     20  C   UNL     1      -4.824 -12.909 -14.562  0.00  0.00    +0.000 C 
ATOM     21  C   UNL     1      -9.222 -15.321 -19.860  0.00  0.00    +0.000 C 
ATOM     22  C   UNL     1     -10.272 -17.205 -17.971  0.00  0.00    +0.000 C 
ATOM     23  C   UNL     1      -5.129 -11.632 -16.648  0.00  0.00    +0.000 C 
ATOM     24  C   UNL     1      -5.053 -11.644 -15.308  0.00  0.00    +0.000 C 
ATOM     25  C   UNL     1     -10.581 -15.891 -20.037  0.00  0.00    +0.000 C 
ATOM     26  C   UNL     1     -11.089 -16.759 -19.147  0.00  0.00    +0.000 C 
ATOM     27  C   UNL     1      -5.183 -10.420 -14.448  0.00  0.00    +0.000 C 
ATOM     28  C   UNL     1     -11.310 -15.420 -21.262  0.00  0.00    +0.000 C 
ENDROOT
BRANCH  23  29
ATOM     29  O   UNL     1      -5.328 -10.419 -17.297  0.00  0.00    +0.000 OA
ATOM     30  C   UNL     1      -4.148  -9.774 -17.769  0.00  0.00    +0.000 C 
ENDBRANCH  23  29
BRANCH  26  31
ATOM     31  O   UNL     1     -12.358 -17.284 -19.368  0.00  0.00    +0.000 OA
ATOM     32  C   UNL     1     -12.383 -18.523 -20.074  0.00  0.00    +0.000 C 
ENDBRANCH  26  31
BRANCH  10  34
ATOM     33  N   UNL     1      -5.639 -19.841 -16.392  0.00  0.00    +0.000 NA
ATOM     34  C   UNL     1      -5.772 -18.742 -16.042  0.00  0.00    +0.000 C 
ENDBRANCH  10  34
BRANCH  11  35
ATOM     35  C   UNL     1      -8.952 -16.463 -15.240  0.00  0.00    +0.000 C 
BRANCH  35  36
ATOM     36  O   UNL     1      -8.494 -15.132 -14.921  0.00  0.00    +0.000 OA
BRANCH  36  38
ATOM     37  O   UNL     1     -10.005 -13.972 -13.650  0.00  0.00    +0.000 OA
ATOM     38  C   UNL     1      -9.477 -14.224 -14.721  0.00  0.00    +0.000 C 
BRANCH  38  39
ATOM     39  C   UNL     1      -9.749 -13.460 -15.971  0.00  0.00    +0.000 C 
ATOM     40  C   UNL     1      -8.644 -12.509 -16.338  0.00  0.00    +0.000 C 
ATOM     41  C   UNL     1     -10.867 -13.571 -16.717  0.00  0.00    +0.000 C 
ATOM     42  C   UNL     1     -12.090 -14.387 -16.439  0.00  0.00    +0.000 C 
ENDBRANCH  38  39
ENDBRANCH  36  38
ENDBRANCH  35  36
ENDBRANCH  11  35
TORSDOF 7
ENDMDL
