REMARK  Name = 
REMARK  14 active torsions:
REMARK  status: ('A' for Active; 'I' for Inactive)
REMARK    1  A    between atoms: O_1  and  C_24
REMARK    2  A    between atoms: O_1  and  C_36
REMARK    3  A    between atoms: O_4  and  C_30
REMARK    4  A    between atoms: O_4  and  C_37
REMARK    5  A    between atoms: O_7  and  C_33
REMARK    6  A    between atoms: O_7  and  C_38
REMARK    7  A    between atoms: N_10  and  C_23
REMARK    8  A    between atoms: C_15  and  C_26
REMARK    9  A    between atoms: C_16  and  C_24
REMARK   10  A    between atoms: C_31  and  C_34
REMARK   11  A    between atoms: C_32  and  C_35
REMARK   12  A    between atoms: C_36  and  C_39
REMARK   13  A    between atoms: C_39  and  C_40
REMARK   14  A    between atoms: C_41  and  C_42
REMARK                            x       y       z     vdW  Elec       q    Type
REMARK                         _______ _______ _______ _____ _____    ______ ____
ROOT
ATOM      1  O   UNL     1      -2.183  -0.533  -2.962  0.00  0.00    +0.000 OA
ATOM      2  O   UNL     1      -4.123  -1.059   1.960  0.00  0.00    +0.000 OA
ATOM      3  O   UNL     1       2.458  -0.609  -3.409  0.00  0.00    +0.000 OA
ATOM      4  O   UNL     1       4.260   1.336   1.200  0.00  0.00    +0.000 OA
ATOM      5  N   UNL     1       0.059   1.537   0.517  0.00  0.00    +0.000 NA
ATOM      6  N   UNL     1      -2.317   2.866  -0.585  0.00  0.00    +0.000 NA
ATOM      7  C   UNL     1      -0.193   1.638  -0.944  0.00  0.00    +0.000 C 
ATOM      8  C   UNL     1      -1.747   1.671  -1.271  0.00  0.00    +0.000 C 
ATOM      9  C   UNL     1      -2.191   2.679   0.883  0.00  0.00    +0.000 C 
ATOM     10  C   UNL     1      -0.669   2.601   1.280  0.00  0.00    +0.000 C 
ATOM     11  C   UNL     1       1.481   1.375   0.930  0.00  0.00    +0.000 C 
ATOM     12  C   UNL     1       0.516   0.497  -1.704  0.00  0.00    +0.000 C 
ATOM     13  C   UNL     1      -2.958   1.423   1.382  0.00  0.00    +0.000 C 
ATOM     14  C   UNL     1      -2.438   0.391  -0.822  0.00  0.00    +0.000 C 
ATOM     15  C   UNL     1      -2.972   0.276   0.403  0.00  0.00    +0.000 C 
ATOM     16  C   UNL     1       2.403   0.825  -0.147  0.00  0.00    +0.000 C 
ATOM     17  C   UNL     1       1.966   0.401  -1.339  0.00  0.00    +0.000 C 
ATOM     18  C   UNL     1      -3.665   3.208  -1.029  0.00  0.00    +0.000 C 
ATOM     19  C   UNL     1      -2.558  -0.708  -1.807  0.00  0.00    +0.000 C 
ATOM     20  C   UNL     1      -3.632  -0.972   0.840  0.00  0.00    +0.000 C 
ATOM     21  C   UNL     1       2.885  -0.177  -2.344  0.00  0.00    +0.000 C 
ATOM     22  C   UNL     1       3.857   0.823   0.161  0.00  0.00    +0.000 C 
ATOM     23  C   UNL     1      -3.142  -2.009  -1.342  0.00  0.00    +0.000 C 
ATOM     24  C   UNL     1      -3.663  -2.115  -0.109  0.00  0.00    +0.000 C 
ATOM     25  C   UNL     1       4.329  -0.251  -2.010  0.00  0.00    +0.000 C 
ATOM     26  C   UNL     1       4.791   0.196  -0.831  0.00  0.00    +0.000 C 
ATOM     27  C   UNL     1      -4.316  -3.358   0.422  0.00  0.00    +0.000 C 
ATOM     28  C   UNL     1       5.195  -0.856  -3.077  0.00  0.00    +0.000 C 
ENDROOT
BRANCH  23  29
ATOM     29  O   UNL     1      -3.212  -3.104  -2.196  0.00  0.00    +0.000 OA
ATOM     30  C   UNL     1      -2.063  -3.321  -3.011  0.00  0.00    +0.000 C 
ENDBRANCH  23  29
BRANCH  26  31
ATOM     31  O   UNL     1       6.156   0.127  -0.573  0.00  0.00    +0.000 OA
ATOM     32  C   UNL     1       6.500  -0.299   0.744  0.00  0.00    +0.000 C 
ENDBRANCH  26  31
BRANCH  10  34
ATOM     33  N   UNL     1       0.414   5.015   1.086  0.00  0.00    +0.000 NA
ATOM     34  C   UNL     1      -0.076   3.965   1.158  0.00  0.00    +0.000 C 
ENDBRANCH  10  34
BRANCH  11  35
ATOM     35  C   UNL     1       1.502   0.440   2.176  0.00  0.00    +0.000 C 
BRANCH  35  36
ATOM     36  O   UNL     1       0.831  -0.796   1.852  0.00  0.00    +0.000 OA
BRANCH  36  38
ATOM     37  O   UNL     1       0.704  -1.276   4.088  0.00  0.00    +0.000 OA
ATOM     38  C   UNL     1       0.483  -1.551   2.920  0.00  0.00    +0.000 C 
BRANCH  38  39
ATOM     39  C   UNL     1      -0.339  -2.719   2.492  0.00  0.00    +0.000 C 
ATOM     40  C   UNL     1      -1.423  -3.073   3.471  0.00  0.00    +0.000 C 
ATOM     41  C   UNL     1      -0.150  -3.421   1.357  0.00  0.00    +0.000 C 
ATOM     42  C   UNL     1       0.934  -3.264   0.338  0.00  0.00    +0.000 C 
ENDBRANCH  38  39
ENDBRANCH  36  38
ENDBRANCH  35  36
ENDBRANCH  11  35
TORSDOF 7
