MODEL 1
REMARK VINA RESULT:      -5.3      0.000      0.000
REMARK  Name = Resveratrol.pdbqt.pdb
REMARK  5 active torsions:
REMARK  status: ('A' for Active; 'I' for Inactive)
REMARK    1  A    between atoms: C_1  and  C_11
REMARK    2  A    between atoms: C_4  and  O_7
REMARK    3  A    between atoms: C_5  and  O_9
REMARK    4  A    between atoms: C_12  and  C_13
REMARK    5  A    between atoms: C_18  and  O_19
REMARK                            x       y       z     vdW  Elec       q    Type
REMARK                         _______ _______ _______ _____ _____    ______ ____
ROOT
ATOM      1  C   UNL     1      -3.798 -34.604  -6.246  0.00  0.00    +0.000 A 
ATOM      2  C   UNL     1      -4.845 -35.100  -7.021  0.00  0.00    +0.000 A 
ATOM      3  C   UNL     1      -3.387 -33.279  -6.387  0.00  0.00    +0.000 A 
ATOM      4  C   UNL     1      -4.031 -32.457  -7.308  0.00  0.00    +0.000 A 
ATOM      5  C   UNL     1      -5.475 -34.262  -7.936  0.00  0.00    +0.000 A 
ATOM      6  C   UNL     1      -5.077 -32.938  -8.088  0.00  0.00    +0.000 A 
ENDROOT
BRANCH   4   7
ATOM      7  O   UNL     1      -3.650 -31.156  -7.467  0.00  0.00    +0.000 OA
ATOM      8  H   UNL     1      -3.077 -30.914  -6.718  0.00  0.00    +0.000 HD
ENDBRANCH   4   7
BRANCH   5   9
ATOM      9  O   UNL     1      -6.499 -34.770  -8.684  0.00  0.00    +0.000 OA
ATOM     10  H   UNL     1      -6.506 -34.303  -9.539  0.00  0.00    +0.000 HD
ENDBRANCH   5   9
BRANCH   1  11
ATOM     11  C   UNL     1      -3.144 -35.453  -5.306  0.00  0.00    +0.000 C 
ATOM     12  C   UNL     1      -2.593 -36.169  -4.513  0.00  0.00    +0.000 C 
BRANCH  12  13
ATOM     13  C   UNL     1      -1.939 -37.018  -3.573  0.00  0.00    +0.000 A 
ATOM     14  C   UNL     1      -2.268 -36.941  -2.220  0.00  0.00    +0.000 A 
ATOM     15  C   UNL     1      -0.972 -37.924  -4.009  0.00  0.00    +0.000 A 
ATOM     16  C   UNL     1      -1.632 -37.770  -1.300  0.00  0.00    +0.000 A 
ATOM     17  C   UNL     1      -0.333 -38.754  -3.092  0.00  0.00    +0.000 A 
ATOM     18  C   UNL     1      -0.668 -38.670  -1.744  0.00  0.00    +0.000 A 
BRANCH  18  19
ATOM     19  O   UNL     1      -0.028 -39.494  -0.865  0.00  0.00    +0.000 OA
ATOM     20  H   UNL     1       0.799 -39.798  -1.278  0.00  0.00    +0.000 HD
ENDBRANCH  18  19
ENDBRANCH  12  13
ENDBRANCH   1  11
TORSDOF 5
ENDMDL
MODEL 2
REMARK VINA RESULT:      -5.3      0.209      2.331
REMARK  Name = Resveratrol.pdbqt.pdb
REMARK  5 active torsions:
REMARK  status: ('A' for Active; 'I' for Inactive)
REMARK    1  A    between atoms: C_1  and  C_11
REMARK    2  A    between atoms: C_4  and  O_7
REMARK    3  A    between atoms: C_5  and  O_9
REMARK    4  A    between atoms: C_12  and  C_13
REMARK    5  A    between atoms: C_18  and  O_19
REMARK                            x       y       z     vdW  Elec       q    Type
REMARK                         _______ _______ _______ _____ _____    ______ ____
ROOT
ATOM      1  C   UNL     1      -3.762 -34.562  -6.418  0.00  0.00    +0.000 A 
ATOM      2  C   UNL     1      -3.415 -33.215  -6.506  0.00  0.00    +0.000 A 
ATOM      3  C   UNL     1      -4.722 -35.097  -7.277  0.00  0.00    +0.000 A 
ATOM      4  C   UNL     1      -5.329 -34.275  -8.223  0.00  0.00    +0.000 A 
ATOM      5  C   UNL     1      -4.034 -32.410  -7.457  0.00  0.00    +0.000 A 
ATOM      6  C   UNL     1      -4.992 -32.929  -8.322  0.00  0.00    +0.000 A 
ENDROOT
BRANCH   4   7
ATOM      7  O   UNL     1      -6.271 -34.772  -9.077  0.00  0.00    +0.000 OA
ATOM      8  H   UNL     1      -7.073 -34.970  -8.562  0.00  0.00    +0.000 HD
ENDBRANCH   4   7
BRANCH   5   9
ATOM      9  O   UNL     1      -3.678 -31.093  -7.525  0.00  0.00    +0.000 OA
ATOM     10  H   UNL     1      -4.116 -30.704  -8.303  0.00  0.00    +0.000 HD
ENDBRANCH   5   9
BRANCH   1  11
ATOM     11  C   UNL     1      -3.136 -35.397  -5.447  0.00  0.00    +0.000 C 
ATOM     12  C   UNL     1      -2.608 -36.100  -4.628  0.00  0.00    +0.000 C 
BRANCH  12  13
ATOM     13  C   UNL     1      -1.982 -36.935  -3.656  0.00  0.00    +0.000 A 
ATOM     14  C   UNL     1      -1.020 -37.864  -4.053  0.00  0.00    +0.000 A 
ATOM     15  C   UNL     1      -2.333 -36.821  -2.311  0.00  0.00    +0.000 A 
ATOM     16  C   UNL     1      -0.407 -38.679  -3.106  0.00  0.00    +0.000 A 
ATOM     17  C   UNL     1      -1.722 -37.635  -1.361  0.00  0.00    +0.000 A 
ATOM     18  C   UNL     1      -0.764 -38.558  -1.766  0.00  0.00    +0.000 A 
BRANCH  18  19
ATOM     19  O   UNL     1      -0.180 -39.345  -0.817  0.00  0.00    +0.000 OA
ATOM     20  H   UNL     1      -0.574 -40.233  -0.871  0.00  0.00    +0.000 HD
ENDBRANCH  18  19
ENDBRANCH  12  13
ENDBRANCH   1  11
TORSDOF 5
ENDMDL
MODEL 3
REMARK VINA RESULT:      -5.3      4.995      7.715
REMARK  Name = Resveratrol.pdbqt.pdb
REMARK  5 active torsions:
REMARK  status: ('A' for Active; 'I' for Inactive)
REMARK    1  A    between atoms: C_1  and  C_11
REMARK    2  A    between atoms: C_4  and  O_7
REMARK    3  A    between atoms: C_5  and  O_9
REMARK    4  A    between atoms: C_12  and  C_13
REMARK    5  A    between atoms: C_18  and  O_19
REMARK                            x       y       z     vdW  Elec       q    Type
REMARK                         _______ _______ _______ _____ _____    ______ ____
ROOT
ATOM      1  C   UNL     1      -7.180 -33.101  -3.225  0.00  0.00    +0.000 A 
ATOM      2  C   UNL     1      -6.660 -33.876  -2.189  0.00  0.00    +0.000 A 
ATOM      3  C   UNL     1      -8.273 -32.266  -2.996  0.00  0.00    +0.000 A 
ATOM      4  C   UNL     1      -8.839 -32.211  -1.725  0.00  0.00    +0.000 A 
ATOM      5  C   UNL     1      -7.241 -33.808  -0.926  0.00  0.00    +0.000 A 
ATOM      6  C   UNL     1      -8.330 -32.978  -0.682  0.00  0.00    +0.000 A 
ENDROOT
BRANCH   4   7
ATOM      7  O   UNL     1      -9.908 -31.402  -1.472  0.00  0.00    +0.000 OA
ATOM      8  H   UNL     1      -9.613 -30.682  -0.886  0.00  0.00    +0.000 HD
ENDBRANCH   4   7
BRANCH   5   9
ATOM      9  O   UNL     1      -6.715 -34.575   0.073  0.00  0.00    +0.000 OA
ATOM     10  H   UNL     1      -5.839 -34.214   0.300  0.00  0.00    +0.000 HD
ENDBRANCH   5   9
BRANCH   1  11
ATOM     11  C   UNL     1      -6.595 -33.163  -4.523  0.00  0.00    +0.000 C 
ATOM     12  C   UNL     1      -6.101 -33.216  -5.618  0.00  0.00    +0.000 C 
BRANCH  12  13
ATOM     13  C   UNL     1      -5.516 -33.279  -6.916  0.00  0.00    +0.000 A 
ATOM     14  C   UNL     1      -6.119 -34.045  -7.914  0.00  0.00    +0.000 A 
ATOM     15  C   UNL     1      -4.342 -32.575  -7.186  0.00  0.00    +0.000 A 
ATOM     16  C   UNL     1      -5.550 -34.108  -9.182  0.00  0.00    +0.000 A 
ATOM     17  C   UNL     1      -3.770 -32.635  -8.453  0.00  0.00    +0.000 A 
ATOM     18  C   UNL     1      -4.378 -33.402  -9.442  0.00  0.00    +0.000 A 
BRANCH  18  19
ATOM     19  O   UNL     1      -3.799 -33.446 -10.677  0.00  0.00    +0.000 OA
ATOM     20  H   UNL     1      -4.379 -32.978 -11.303  0.00  0.00    +0.000 HD
ENDBRANCH  18  19
ENDBRANCH  12  13
ENDBRANCH   1  11
TORSDOF 5
ENDMDL
MODEL 4
REMARK VINA RESULT:      -5.1      5.782      6.388
REMARK  Name = Resveratrol.pdbqt.pdb
REMARK  5 active torsions:
REMARK  status: ('A' for Active; 'I' for Inactive)
REMARK    1  A    between atoms: C_1  and  C_11
REMARK    2  A    between atoms: C_4  and  O_7
REMARK    3  A    between atoms: C_5  and  O_9
REMARK    4  A    between atoms: C_12  and  C_13
REMARK    5  A    between atoms: C_18  and  O_19
REMARK                            x       y       z     vdW  Elec       q    Type
REMARK                         _______ _______ _______ _____ _____    ______ ____
ROOT
ATOM      1  C   UNL     1      -2.304 -33.852  -9.524  0.00  0.00    +0.000 A 
ATOM      2  C   UNL     1      -3.487 -34.348 -10.069  0.00  0.00    +0.000 A 
ATOM      3  C   UNL     1      -2.317 -32.680  -8.768  0.00  0.00    +0.000 A 
ATOM      4  C   UNL     1      -3.521 -32.012  -8.562  0.00  0.00    +0.000 A 
ATOM      5  C   UNL     1      -4.679 -33.665  -9.853  0.00  0.00    +0.000 A 
ATOM      6  C   UNL     1      -4.709 -32.496  -9.100  0.00  0.00    +0.000 A 
ENDROOT
BRANCH   4   7
ATOM      7  O   UNL     1      -3.564 -30.863  -7.826  0.00  0.00    +0.000 OA
ATOM      8  H   UNL     1      -3.473 -31.101  -6.886  0.00  0.00    +0.000 HD
ENDBRANCH   4   7
BRANCH   5   9
ATOM      9  O   UNL     1      -5.825 -34.170 -10.396  0.00  0.00    +0.000 OA
ATOM     10  H   UNL     1      -5.589 -34.630 -11.222  0.00  0.00    +0.000 HD
ENDBRANCH   5   9
BRANCH   1  11
ATOM     11  C   UNL     1      -1.075 -34.542  -9.740  0.00  0.00    +0.000 C 
ATOM     12  C   UNL     1      -0.039 -35.124  -9.922  0.00  0.00    +0.000 C 
BRANCH  12  13
ATOM     13  C   UNL     1       1.190 -35.813 -10.139  0.00  0.00    +0.000 A 
ATOM     14  C   UNL     1       1.262 -37.190  -9.925  0.00  0.00    +0.000 A 
ATOM     15  C   UNL     1       2.317 -35.110 -10.563  0.00  0.00    +0.000 A 
ATOM     16  C   UNL     1       2.460 -37.865 -10.136  0.00  0.00    +0.000 A 
ATOM     17  C   UNL     1       3.518 -35.782 -10.775  0.00  0.00    +0.000 A 
ATOM     18  C   UNL     1       3.580 -37.155 -10.559  0.00  0.00    +0.000 A 
BRANCH  18  19
ATOM     19  O   UNL     1       4.767 -37.791 -10.774  0.00  0.00    +0.000 OA
ATOM     20  H   UNL     1       4.775 -38.124 -11.688  0.00  0.00    +0.000 HD
ENDBRANCH  18  19
ENDBRANCH  12  13
ENDBRANCH   1  11
TORSDOF 5
ENDMDL
MODEL 5
REMARK VINA RESULT:      -5.1      5.211      6.022
REMARK  Name = Resveratrol.pdbqt.pdb
REMARK  5 active torsions:
REMARK  status: ('A' for Active; 'I' for Inactive)
REMARK    1  A    between atoms: C_1  and  C_11
REMARK    2  A    between atoms: C_4  and  O_7
REMARK    3  A    between atoms: C_5  and  O_9
REMARK    4  A    between atoms: C_12  and  C_13
REMARK    5  A    between atoms: C_18  and  O_19
REMARK                            x       y       z     vdW  Elec       q    Type
REMARK                         _______ _______ _______ _____ _____    ______ ____
ROOT
ATOM      1  C   UNL     1      -5.513 -33.189  -6.707  0.00  0.00    +0.000 A 
ATOM      2  C   UNL     1      -6.096 -33.916  -7.743  0.00  0.00    +0.000 A 
ATOM      3  C   UNL     1      -4.307 -32.520  -6.911  0.00  0.00    +0.000 A 
ATOM      4  C   UNL     1      -3.690 -32.585  -8.158  0.00  0.00    +0.000 A 
ATOM      5  C   UNL     1      -5.464 -33.969  -8.982  0.00  0.00    +0.000 A 
ATOM      6  C   UNL     1      -4.261 -33.306  -9.201  0.00  0.00    +0.000 A 
ENDROOT
BRANCH   4   7
ATOM      7  O   UNL     1      -2.510 -31.940  -8.386  0.00  0.00    +0.000 OA
ATOM      8  H   UNL     1      -2.354 -31.923  -9.347  0.00  0.00    +0.000 HD
ENDBRANCH   4   7
BRANCH   5   9
ATOM      9  O   UNL     1      -6.054 -34.687  -9.982  0.00  0.00    +0.000 OA
ATOM     10  H   UNL     1      -6.814 -34.176 -10.311  0.00  0.00    +0.000 HD
ENDBRANCH   5   9
BRANCH   1  11
ATOM     11  C   UNL     1      -6.151 -33.128  -5.433  0.00  0.00    +0.000 C 
ATOM     12  C   UNL     1      -6.688 -33.078  -4.359  0.00  0.00    +0.000 C 
BRANCH  12  13
ATOM     13  C   UNL     1      -7.325 -33.017  -3.085  0.00  0.00    +0.000 A 
ATOM     14  C   UNL     1      -8.431 -32.189  -2.899  0.00  0.00    +0.000 A 
ATOM     15  C   UNL     1      -6.839 -33.786  -2.027  0.00  0.00    +0.000 A 
ATOM     16  C   UNL     1      -9.055 -32.129  -1.656  0.00  0.00    +0.000 A 
ATOM     17  C   UNL     1      -7.460 -33.728  -0.782  0.00  0.00    +0.000 A 
ATOM     18  C   UNL     1      -8.563 -32.899  -0.606  0.00  0.00    +0.000 A 
BRANCH  18  19
ATOM     19  O   UNL     1      -9.154 -32.859   0.623  0.00  0.00    +0.000 OA
ATOM     20  H   UNL     1      -9.153 -33.760   0.991  0.00  0.00    +0.000 HD
ENDBRANCH  18  19
ENDBRANCH  12  13
ENDBRANCH   1  11
TORSDOF 5
ENDMDL
MODEL 6
REMARK VINA RESULT:      -4.8     11.293     13.267
REMARK  Name = Resveratrol.pdbqt.pdb
REMARK  5 active torsions:
REMARK  status: ('A' for Active; 'I' for Inactive)
REMARK    1  A    between atoms: C_1  and  C_11
REMARK    2  A    between atoms: C_4  and  O_7
REMARK    3  A    between atoms: C_5  and  O_9
REMARK    4  A    between atoms: C_12  and  C_13
REMARK    5  A    between atoms: C_18  and  O_19
REMARK                            x       y       z     vdW  Elec       q    Type
REMARK                         _______ _______ _______ _____ _____    ______ ____
ROOT
ATOM      1  C   UNL     1      -8.269 -30.718   5.607  0.00  0.00    +0.000 A 
ATOM      2  C   UNL     1      -7.660 -31.590   6.509  0.00  0.00    +0.000 A 
ATOM      3  C   UNL     1      -8.618 -29.428   6.004  0.00  0.00    +0.000 A 
ATOM      4  C   UNL     1      -8.353 -29.018   7.308  0.00  0.00    +0.000 A 
ATOM      5  C   UNL     1      -7.405 -31.160   7.808  0.00  0.00    +0.000 A 
ATOM      6  C   UNL     1      -7.746 -29.876   8.219  0.00  0.00    +0.000 A 
ENDROOT
BRANCH   4   7
ATOM      7  O   UNL     1      -8.684 -27.761   7.725  0.00  0.00    +0.000 OA
ATOM      8  H   UNL     1      -9.465 -27.470   7.222  0.00  0.00    +0.000 HD
ENDBRANCH   4   7
BRANCH   5   9
ATOM      9  O   UNL     1      -6.807 -32.031   8.674  0.00  0.00    +0.000 OA
ATOM     10  H   UNL     1      -6.842 -32.920   8.278  0.00  0.00    +0.000 HD
ENDBRANCH   5   9
BRANCH   1  11
ATOM     11  C   UNL     1      -8.537 -31.146   4.274  0.00  0.00    +0.000 C 
ATOM     12  C   UNL     1      -8.763 -31.508   3.150  0.00  0.00    +0.000 C 
BRANCH  12  13
ATOM     13  C   UNL     1      -9.032 -31.937   1.817  0.00  0.00    +0.000 A 
ATOM     14  C   UNL     1      -8.836 -33.271   1.463  0.00  0.00    +0.000 A 
ATOM     15  C   UNL     1      -9.490 -31.020   0.870  0.00  0.00    +0.000 A 
ATOM     16  C   UNL     1      -9.098 -33.692   0.163  0.00  0.00    +0.000 A 
ATOM     17  C   UNL     1      -9.753 -31.437  -0.431  0.00  0.00    +0.000 A 
ATOM     18  C   UNL     1      -9.554 -32.770  -0.775  0.00  0.00    +0.000 A 
BRANCH  18  19
ATOM     19  O   UNL     1      -9.819 -33.155  -2.057  0.00  0.00    +0.000 OA
ATOM     20  H   UNL     1     -10.234 -32.407  -2.521  0.00  0.00    +0.000 HD
ENDBRANCH  18  19
ENDBRANCH  12  13
ENDBRANCH   1  11
TORSDOF 5
ENDMDL
MODEL 7
REMARK VINA RESULT:      -4.8      1.914      2.682
REMARK  Name = Resveratrol.pdbqt.pdb
REMARK  5 active torsions:
REMARK  status: ('A' for Active; 'I' for Inactive)
REMARK    1  A    between atoms: C_1  and  C_11
REMARK    2  A    between atoms: C_4  and  O_7
REMARK    3  A    between atoms: C_5  and  O_9
REMARK    4  A    between atoms: C_12  and  C_13
REMARK    5  A    between atoms: C_18  and  O_19
REMARK                            x       y       z     vdW  Elec       q    Type
REMARK                         _______ _______ _______ _____ _____    ______ ____
ROOT
ATOM      1  C   UNL     1      -3.807 -34.684  -4.258  0.00  0.00    +0.000 A 
ATOM      2  C   UNL     1      -3.034 -34.248  -5.333  0.00  0.00    +0.000 A 
ATOM      3  C   UNL     1      -5.136 -34.278  -4.139  0.00  0.00    +0.000 A 
ATOM      4  C   UNL     1      -5.684 -33.436  -5.103  0.00  0.00    +0.000 A 
ATOM      5  C   UNL     1      -3.600 -33.406  -6.285  0.00  0.00    +0.000 A 
ATOM      6  C   UNL     1      -4.925 -32.994  -6.181  0.00  0.00    +0.000 A 
ENDROOT
BRANCH   4   7
ATOM      7  O   UNL     1      -6.982 -33.024  -5.013  0.00  0.00    +0.000 OA
ATOM      8  H   UNL     1      -6.997 -32.167  -4.549  0.00  0.00    +0.000 HD
ENDBRANCH   4   7
BRANCH   5   9
ATOM      9  O   UNL     1      -2.824 -32.993  -7.330  0.00  0.00    +0.000 OA
ATOM     10  H   UNL     1      -3.224 -32.186  -7.700  0.00  0.00    +0.000 HD
ENDBRANCH   5   9
BRANCH   1  11
ATOM     11  C   UNL     1      -3.238 -35.546  -3.274  0.00  0.00    +0.000 C 
ATOM     12  C   UNL     1      -2.758 -36.272  -2.446  0.00  0.00    +0.000 C 
BRANCH  12  13
ATOM     13  C   UNL     1      -2.189 -37.133  -1.463  0.00  0.00    +0.000 A 
ATOM     14  C   UNL     1      -2.020 -36.679  -0.155  0.00  0.00    +0.000 A 
ATOM     15  C   UNL     1      -1.802 -38.427  -1.811  0.00  0.00    +0.000 A 
ATOM     16  C   UNL     1      -1.465 -37.518   0.807  0.00  0.00    +0.000 A 
ATOM     17  C   UNL     1      -1.246 -39.269  -0.852  0.00  0.00    +0.000 A 
ATOM     18  C   UNL     1      -1.081 -38.807   0.450  0.00  0.00    +0.000 A 
BRANCH  18  19
ATOM     19  O   UNL     1      -0.534 -39.651   1.373  0.00  0.00    +0.000 OA
ATOM     20  H   UNL     1      -0.029 -39.118   2.012  0.00  0.00    +0.000 HD
ENDBRANCH  18  19
ENDBRANCH  12  13
ENDBRANCH   1  11
TORSDOF 5
ENDMDL
MODEL 8
REMARK VINA RESULT:      -4.8     18.557     21.525
REMARK  Name = Resveratrol.pdbqt.pdb
REMARK  5 active torsions:
REMARK  status: ('A' for Active; 'I' for Inactive)
REMARK    1  A    between atoms: C_1  and  C_11
REMARK    2  A    between atoms: C_4  and  O_7
REMARK    3  A    between atoms: C_5  and  O_9
REMARK    4  A    between atoms: C_12  and  C_13
REMARK    5  A    between atoms: C_18  and  O_19
REMARK                            x       y       z     vdW  Elec       q    Type
REMARK                         _______ _______ _______ _____ _____    ______ ____
ROOT
ATOM      1  C   UNL     1      -5.696 -17.770   1.981  0.00  0.00    +0.000 A 
ATOM      2  C   UNL     1      -4.848 -17.928   0.886  0.00  0.00    +0.000 A 
ATOM      3  C   UNL     1      -5.278 -18.156   3.254  0.00  0.00    +0.000 A 
ATOM      4  C   UNL     1      -4.007 -18.700   3.422  0.00  0.00    +0.000 A 
ATOM      5  C   UNL     1      -3.582 -18.473   1.075  0.00  0.00    +0.000 A 
ATOM      6  C   UNL     1      -3.150 -18.863   2.339  0.00  0.00    +0.000 A 
ENDROOT
BRANCH   4   7
ATOM      7  O   UNL     1      -3.571 -19.086   4.656  0.00  0.00    +0.000 OA
ATOM      8  H   UNL     1      -4.046 -19.899   4.905  0.00  0.00    +0.000 HD
ENDBRANCH   4   7
BRANCH   5   9
ATOM      9  O   UNL     1      -2.768 -18.618  -0.012  0.00  0.00    +0.000 OA
ATOM     10  H   UNL     1      -1.981 -19.118   0.267  0.00  0.00    +0.000 HD
ENDBRANCH   5   9
BRANCH   1  11
ATOM     11  C   UNL     1      -6.996 -17.212   1.801  0.00  0.00    +0.000 C 
ATOM     12  C   UNL     1      -8.091 -16.743   1.648  0.00  0.00    +0.000 C 
BRANCH  12  13
ATOM     13  C   UNL     1      -9.392 -16.186   1.467  0.00  0.00    +0.000 A 
ATOM     14  C   UNL     1      -9.535 -14.821   1.217  0.00  0.00    +0.000 A 
ATOM     15  C   UNL     1     -10.517 -17.007   1.539  0.00  0.00    +0.000 A 
ATOM     16  C   UNL     1     -10.802 -14.276   1.039  0.00  0.00    +0.000 A 
ATOM     17  C   UNL     1     -11.786 -16.465   1.363  0.00  0.00    +0.000 A 
ATOM     18  C   UNL     1     -11.919 -15.103   1.114  0.00  0.00    +0.000 A 
BRANCH  18  19
ATOM     19  O   UNL     1     -13.174 -14.595   0.944  0.00  0.00    +0.000 OA
ATOM     20  H   UNL     1     -13.444 -14.750   0.022  0.00  0.00    +0.000 HD
ENDBRANCH  18  19
ENDBRANCH  12  13
ENDBRANCH   1  11
TORSDOF 5
ENDMDL
MODEL 9
REMARK VINA RESULT:      -4.6      9.761     11.894
REMARK  Name = Resveratrol.pdbqt.pdb
REMARK  5 active torsions:
REMARK  status: ('A' for Active; 'I' for Inactive)
REMARK    1  A    between atoms: C_1  and  C_11
REMARK    2  A    between atoms: C_4  and  O_7
REMARK    3  A    between atoms: C_5  and  O_9
REMARK    4  A    between atoms: C_12  and  C_13
REMARK    5  A    between atoms: C_18  and  O_19
REMARK                            x       y       z     vdW  Elec       q    Type
REMARK                         _______ _______ _______ _____ _____    ______ ____
ROOT
ATOM      1  C   UNL     1       4.112 -29.917  -0.617  0.00  0.00    +0.000 A 
ATOM      2  C   UNL     1       2.845 -29.524  -0.188  0.00  0.00    +0.000 A 
ATOM      3  C   UNL     1       5.071 -30.326   0.309  0.00  0.00    +0.000 A 
ATOM      4  C   UNL     1       4.752 -30.338   1.665  0.00  0.00    +0.000 A 
ATOM      5  C   UNL     1       2.547 -29.543   1.171  0.00  0.00    +0.000 A 
ATOM      6  C   UNL     1       3.493 -29.949   2.107  0.00  0.00    +0.000 A 
ENDROOT
BRANCH   4   7
ATOM      7  O   UNL     1       5.671 -30.734   2.593  0.00  0.00    +0.000 OA
ATOM      8  H   UNL     1       5.842 -29.983   3.190  0.00  0.00    +0.000 HD
ENDBRANCH   4   7
BRANCH   5   9
ATOM      9  O   UNL     1       1.300 -29.154   1.568  0.00  0.00    +0.000 OA
ATOM     10  H   UNL     1       1.140 -29.518   2.457  0.00  0.00    +0.000 HD
ENDBRANCH   5   9
BRANCH   1  11
ATOM     11  C   UNL     1       4.430 -29.901  -2.007  0.00  0.00    +0.000 C 
ATOM     12  C   UNL     1       4.699 -29.887  -3.178  0.00  0.00    +0.000 C 
BRANCH  12  13
ATOM     13  C   UNL     1       5.018 -29.871  -4.568  0.00  0.00    +0.000 A 
ATOM     14  C   UNL     1       4.236 -30.593  -5.469  0.00  0.00    +0.000 A 
ATOM     15  C   UNL     1       6.111 -29.134  -5.022  0.00  0.00    +0.000 A 
ATOM     16  C   UNL     1       4.546 -30.579  -6.826  0.00  0.00    +0.000 A 
ATOM     17  C   UNL     1       6.424 -29.117  -6.378  0.00  0.00    +0.000 A 
ATOM     18  C   UNL     1       5.639 -29.841  -7.270  0.00  0.00    +0.000 A 
BRANCH  18  19
ATOM     19  O   UNL     1       5.965 -29.809  -8.594  0.00  0.00    +0.000 OA
ATOM     20  H   UNL     1       6.740 -30.381  -8.731  0.00  0.00    +0.000 HD
ENDBRANCH  18  19
ENDBRANCH  12  13
ENDBRANCH   1  11
TORSDOF 5
ENDMDL
