MODEL 1
REMARK VINA RESULT:      -5.5      0.000      0.000
REMARK  Name = RetinoicAcid.pdbqt.pdb
REMARK  6 active torsions:
REMARK  status: ('A' for Active; 'I' for Inactive)
REMARK    1  A    between atoms: C_1  and  C_3
REMARK    2  A    between atoms: C_1  and  C_5
REMARK    3  A    between atoms: C_3  and  C_15
REMARK    4  A    between atoms: C_4  and  C_9
REMARK    5  A    between atoms: C_16  and  C_17
REMARK    6  A    between atoms: C_21  and  O_22
REMARK                            x       y       z     vdW  Elec       q    Type
REMARK                         _______ _______ _______ _____ _____    ______ ____
ROOT
ATOM      1  C   UNL     1     -14.680 -17.851  -2.321  0.00  0.00    +0.000 C 
ATOM      2  C   UNL     1     -14.949 -19.284  -2.664  0.00  0.00    +0.000 C 
ENDROOT
BRANCH   1   4
ATOM      3  C   UNL     1     -13.528 -17.232  -0.052  0.00  0.00    +0.000 C 
ATOM      4  C   UNL     1     -14.054 -17.521  -1.095  0.00  0.00    +0.000 C 
BRANCH   3   8
ATOM      5  C   UNL     1     -12.665 -15.372   1.550  0.00  0.00    +0.000 C 
ATOM      6  C   UNL     1     -12.021 -15.302   2.883  0.00  0.00    +0.000 C 
ATOM      7  C   UNL     1     -11.521 -16.185   4.010  0.00  0.00    +0.000 C 
ATOM      8  C   UNL     1     -12.903 -16.880   1.201  0.00  0.00    +0.000 C 
ATOM      9  C   UNL     1     -11.922 -17.459   3.300  0.00  0.00    +0.000 C 
ATOM     10  C   UNL     1     -12.531 -17.849   2.073  0.00  0.00    +0.000 C 
ATOM     11  C   UNL     1     -11.730 -14.747   0.480  0.00  0.00    +0.000 C 
ATOM     12  C   UNL     1     -14.039 -14.646   1.589  0.00  0.00    +0.000 C 
ATOM     13  C   UNL     1     -12.726 -19.322   1.842  0.00  0.00    +0.000 C 
ENDBRANCH   3   8
ENDBRANCH   1   4
BRANCH   1  14
ATOM     14  C   UNL     1     -15.064 -16.911  -3.126  0.00  0.00    +0.000 C 
BRANCH  14  15
ATOM     15  C   UNL     1     -15.520 -15.799  -4.079  0.00  0.00    +0.000 C 
ATOM     16  C   UNL     1     -15.877 -14.927  -4.823  0.00  0.00    +0.000 C 
BRANCH  16  17
ATOM     17  C   UNL     1     -16.293 -13.897  -5.700  0.00  0.00    +0.000 C 
ATOM     18  C   UNL     1     -15.643 -13.752  -7.042  0.00  0.00    +0.000 C 
ATOM     19  C   UNL     1     -17.208 -13.064  -5.331  0.00  0.00    +0.000 C 
ATOM     20  O   UNL     1     -19.412 -12.415  -4.992  0.00  0.00    +0.000 OA
ATOM     21  C   UNL     1     -18.224 -12.161  -4.919  0.00  0.00    +0.000 C 
BRANCH  21  22
ATOM     22  O   UNL     1     -17.758 -11.006  -4.417  0.00  0.00    +0.000 OA
ATOM     23  H   UNL     1     -17.438 -10.516  -5.203  0.00  0.00    +0.000 HD
ENDBRANCH  21  22
ENDBRANCH  16  17
ENDBRANCH  14  15
ENDBRANCH   1  14
TORSDOF 6
ENDMDL
MODEL 2
REMARK VINA RESULT:      -5.5     14.406     16.934
REMARK  Name = RetinoicAcid.pdbqt.pdb
REMARK  6 active torsions:
REMARK  status: ('A' for Active; 'I' for Inactive)
REMARK    1  A    between atoms: C_1  and  C_3
REMARK    2  A    between atoms: C_1  and  C_5
REMARK    3  A    between atoms: C_3  and  C_15
REMARK    4  A    between atoms: C_4  and  C_9
REMARK    5  A    between atoms: C_16  and  C_17
REMARK    6  A    between atoms: C_21  and  O_22
REMARK                            x       y       z     vdW  Elec       q    Type
REMARK                         _______ _______ _______ _____ _____    ______ ____
ROOT
ATOM      1  C   UNL     1      -6.338 -12.816 -14.483  0.00  0.00    +0.000 C 
ATOM      2  C   UNL     1      -7.514 -12.180 -15.159  0.00  0.00    +0.000 C 
ENDROOT
BRANCH   1   4
ATOM      3  C   UNL     1      -5.660 -15.278 -15.068  0.00  0.00    +0.000 C 
ATOM      4  C   UNL     1      -5.969 -14.145 -14.804  0.00  0.00    +0.000 C 
BRANCH   3   8
ATOM      5  C   UNL     1      -3.786 -17.056 -15.375  0.00  0.00    +0.000 C 
ATOM      6  C   UNL     1      -3.701 -18.495 -15.719  0.00  0.00    +0.000 C 
ATOM      7  C   UNL     1      -4.571 -19.686 -16.070  0.00  0.00    +0.000 C 
ATOM      8  C   UNL     1      -5.295 -16.639 -15.379  0.00  0.00    +0.000 C 
ATOM      9  C   UNL     1      -5.851 -18.887 -15.965  0.00  0.00    +0.000 C 
ATOM     10  C   UNL     1      -6.253 -17.554 -15.668  0.00  0.00    +0.000 C 
ATOM     11  C   UNL     1      -3.026 -16.214 -16.436  0.00  0.00    +0.000 C 
ATOM     12  C   UNL     1      -3.207 -16.818 -13.951  0.00  0.00    +0.000 C 
ATOM     13  C   UNL     1      -7.729 -17.262 -15.686  0.00  0.00    +0.000 C 
ENDBRANCH   3   8
ENDBRANCH   1   4
BRANCH   1  14
ATOM     14  C   UNL     1      -5.688 -12.167 -13.569  0.00  0.00    +0.000 C 
BRANCH  14  15
ATOM     15  C   UNL     1      -4.921 -11.397 -12.486  0.00  0.00    +0.000 C 
ATOM     16  C   UNL     1      -4.322 -10.796 -11.637  0.00  0.00    +0.000 C 
BRANCH  16  17
ATOM     17  C   UNL     1      -3.613 -10.091 -10.635  0.00  0.00    +0.000 C 
ATOM     18  C   UNL     1      -2.117 -10.038 -10.679  0.00  0.00    +0.000 C 
ATOM     19  C   UNL     1      -4.253  -9.523  -9.668  0.00  0.00    +0.000 C 
ATOM     20  O   UNL     1      -5.486  -7.796  -8.724  0.00  0.00    +0.000 OA
ATOM     21  C   UNL     1      -4.969  -8.892  -8.616  0.00  0.00    +0.000 C 
BRANCH  21  22
ATOM     22  O   UNL     1      -5.046  -9.623  -7.492  0.00  0.00    +0.000 OA
ATOM     23  H   UNL     1      -5.759 -10.270  -7.676  0.00  0.00    +0.000 HD
ENDBRANCH  21  22
ENDBRANCH  16  17
ENDBRANCH  14  15
ENDBRANCH   1  14
TORSDOF 6
ENDMDL
MODEL 3
REMARK VINA RESULT:      -5.3     10.807     13.500
REMARK  Name = RetinoicAcid.pdbqt.pdb
REMARK  6 active torsions:
REMARK  status: ('A' for Active; 'I' for Inactive)
REMARK    1  A    between atoms: C_1  and  C_3
REMARK    2  A    between atoms: C_1  and  C_5
REMARK    3  A    between atoms: C_3  and  C_15
REMARK    4  A    between atoms: C_4  and  C_9
REMARK    5  A    between atoms: C_16  and  C_17
REMARK    6  A    between atoms: C_21  and  O_22
REMARK                            x       y       z     vdW  Elec       q    Type
REMARK                         _______ _______ _______ _____ _____    ______ ____
ROOT
ATOM      1  C   UNL     1      -3.586 -15.054  -1.874  0.00  0.00    +0.000 C 
ATOM      2  C   UNL     1      -3.207 -15.076  -3.323  0.00  0.00    +0.000 C 
ENDROOT
BRANCH   1   4
ATOM      3  C   UNL     1      -4.313 -12.812  -0.731  0.00  0.00    +0.000 C 
ATOM      4  C   UNL     1      -3.979 -13.839  -1.261  0.00  0.00    +0.000 C 
BRANCH   3   8
ATOM      5  C   UNL     1      -3.715 -10.855   0.876  0.00  0.00    +0.000 C 
ATOM      6  C   UNL     1      -4.374  -9.629   1.383  0.00  0.00    +0.000 C 
ATOM      7  C   UNL     1      -5.672  -8.849   1.288  0.00  0.00    +0.000 C 
ATOM      8  C   UNL     1      -4.711 -11.582  -0.088  0.00  0.00    +0.000 C 
ATOM      9  C   UNL     1      -6.291  -9.840   0.327  0.00  0.00    +0.000 C 
ATOM     10  C   UNL     1      -5.939 -11.057  -0.323  0.00  0.00    +0.000 C 
ATOM     11  C   UNL     1      -3.376 -11.800   2.060  0.00  0.00    +0.000 C 
ATOM     12  C   UNL     1      -2.437 -10.475   0.076  0.00  0.00    +0.000 C 
ATOM     13  C   UNL     1      -6.964 -11.667  -1.239  0.00  0.00    +0.000 C 
ENDBRANCH   3   8
ENDBRANCH   1   4
BRANCH   1  14
ATOM     14  C   UNL     1      -3.508 -16.139  -1.169  0.00  0.00    +0.000 C 
BRANCH  14  15
ATOM     15  C   UNL     1      -3.414 -17.424  -0.336  0.00  0.00    +0.000 C 
ATOM     16  C   UNL     1      -3.339 -18.428   0.317  0.00  0.00    +0.000 C 
BRANCH  16  17
ATOM     17  C   UNL     1      -3.251 -19.610   1.092  0.00  0.00    +0.000 C 
ATOM     18  C   UNL     1      -4.101 -19.762   2.316  0.00  0.00    +0.000 C 
ATOM     19  C   UNL     1      -2.418 -20.539   0.762  0.00  0.00    +0.000 C 
ATOM     20  O   UNL     1      -1.753 -22.391  -0.473  0.00  0.00    +0.000 OA
ATOM     21  C   UNL     1      -1.507 -21.560   0.383  0.00  0.00    +0.000 C 
BRANCH  21  22
ATOM     22  O   UNL     1      -0.335 -21.517   1.036  0.00  0.00    +0.000 OA
ATOM     23  H   UNL     1       0.279 -22.018   0.459  0.00  0.00    +0.000 HD
ENDBRANCH  21  22
ENDBRANCH  16  17
ENDBRANCH  14  15
ENDBRANCH   1  14
TORSDOF 6
ENDMDL
MODEL 4
REMARK VINA RESULT:      -5.3     10.627     13.549
REMARK  Name = RetinoicAcid.pdbqt.pdb
REMARK  6 active torsions:
REMARK  status: ('A' for Active; 'I' for Inactive)
REMARK    1  A    between atoms: C_1  and  C_3
REMARK    2  A    between atoms: C_1  and  C_5
REMARK    3  A    between atoms: C_3  and  C_15
REMARK    4  A    between atoms: C_4  and  C_9
REMARK    5  A    between atoms: C_16  and  C_17
REMARK    6  A    between atoms: C_21  and  O_22
REMARK                            x       y       z     vdW  Elec       q    Type
REMARK                         _______ _______ _______ _____ _____    ______ ____
ROOT
ATOM      1  C   UNL     1      -2.990 -14.963  -1.776  0.00  0.00    +0.000 C 
ATOM      2  C   UNL     1      -2.298 -14.899  -3.103  0.00  0.00    +0.000 C 
ENDROOT
BRANCH   1   4
ATOM      3  C   UNL     1      -4.041 -12.799  -0.742  0.00  0.00    +0.000 C 
ATOM      4  C   UNL     1      -3.554 -13.793  -1.213  0.00  0.00    +0.000 C 
BRANCH   3   8
ATOM      5  C   UNL     1      -6.186 -11.521  -0.009  0.00  0.00    +0.000 C 
ATOM      6  C   UNL     1      -6.513 -10.206   0.591  0.00  0.00    +0.000 C 
ATOM      7  C   UNL     1      -5.862  -8.931   1.089  0.00  0.00    +0.000 C 
ATOM      8  C   UNL     1      -4.632 -11.607  -0.180  0.00  0.00    +0.000 C 
ATOM      9  C   UNL     1      -4.468  -9.417   0.758  0.00  0.00    +0.000 C 
ATOM     10  C   UNL     1      -3.846 -10.572   0.204  0.00  0.00    +0.000 C 
ATOM     11  C   UNL     1      -6.856 -11.646  -1.404  0.00  0.00    +0.000 C 
ATOM     12  C   UNL     1      -6.647 -12.664   0.940  0.00  0.00    +0.000 C 
ATOM     13  C   UNL     1      -2.346 -10.558   0.096  0.00  0.00    +0.000 C 
ENDBRANCH   3   8
ENDBRANCH   1   4
BRANCH   1  14
ATOM     14  C   UNL     1      -3.031 -16.081  -1.121  0.00  0.00    +0.000 C 
BRANCH  14  15
ATOM     15  C   UNL     1      -3.080 -17.405  -0.347  0.00  0.00    +0.000 C 
ATOM     16  C   UNL     1      -3.119 -18.440   0.260  0.00  0.00    +0.000 C 
BRANCH  16  17
ATOM     17  C   UNL     1      -3.166 -19.657   0.980  0.00  0.00    +0.000 C 
ATOM     18  C   UNL     1      -4.160 -19.830   2.087  0.00  0.00    +0.000 C 
ATOM     19  C   UNL     1      -2.332 -20.604   0.705  0.00  0.00    +0.000 C 
ATOM     20  O   UNL     1      -1.589 -22.424  -0.533  0.00  0.00    +0.000 OA
ATOM     21  C   UNL     1      -1.419 -21.643   0.386  0.00  0.00    +0.000 C 
BRANCH  21  22
ATOM     22  O   UNL     1      -0.331 -21.677   1.173  0.00  0.00    +0.000 OA
ATOM     23  H   UNL     1      -0.401 -22.535   1.641  0.00  0.00    +0.000 HD
ENDBRANCH  21  22
ENDBRANCH  16  17
ENDBRANCH  14  15
ENDBRANCH   1  14
TORSDOF 6
ENDMDL
MODEL 5
REMARK VINA RESULT:      -5.2      1.707      2.157
REMARK  Name = RetinoicAcid.pdbqt.pdb
REMARK  6 active torsions:
REMARK  status: ('A' for Active; 'I' for Inactive)
REMARK    1  A    between atoms: C_1  and  C_3
REMARK    2  A    between atoms: C_1  and  C_5
REMARK    3  A    between atoms: C_3  and  C_15
REMARK    4  A    between atoms: C_4  and  C_9
REMARK    5  A    between atoms: C_16  and  C_17
REMARK    6  A    between atoms: C_21  and  O_22
REMARK                            x       y       z     vdW  Elec       q    Type
REMARK                         _______ _______ _______ _____ _____    ______ ____
ROOT
ATOM      1  C   UNL     1     -14.680 -17.967  -2.257  0.00  0.00    +0.000 C 
ATOM      2  C   UNL     1     -14.837 -19.423  -2.573  0.00  0.00    +0.000 C 
ENDROOT
BRANCH   1   4
ATOM      3  C   UNL     1     -13.543 -17.217  -0.019  0.00  0.00    +0.000 C 
ATOM      4  C   UNL     1     -14.061 -17.566  -1.047  0.00  0.00    +0.000 C 
BRANCH   3   8
ATOM      5  C   UNL     1     -12.735 -15.267   1.502  0.00  0.00    +0.000 C 
ATOM      6  C   UNL     1     -12.091 -15.122   2.828  0.00  0.00    +0.000 C 
ATOM      7  C   UNL     1     -11.559 -15.941   3.988  0.00  0.00    +0.000 C 
ATOM      8  C   UNL     1     -12.926 -16.795   1.216  0.00  0.00    +0.000 C 
ATOM      9  C   UNL     1     -11.921 -17.255   3.333  0.00  0.00    +0.000 C 
ATOM     10  C   UNL     1     -12.520 -17.714   2.125  0.00  0.00    +0.000 C 
ATOM     11  C   UNL     1     -11.824 -14.657   0.403  0.00  0.00    +0.000 C 
ATOM     12  C   UNL     1     -14.132 -14.585   1.516  0.00  0.00    +0.000 C 
ATOM     13  C   UNL     1     -12.669 -19.201   1.955  0.00  0.00    +0.000 C 
ENDBRANCH   3   8
ENDBRANCH   1   4
BRANCH   1  14
ATOM     14  C   UNL     1     -15.154 -17.074  -3.068  0.00  0.00    +0.000 C 
BRANCH  14  15
ATOM     15  C   UNL     1     -15.716 -16.019  -4.029  0.00  0.00    +0.000 C 
ATOM     16  C   UNL     1     -16.157 -15.192  -4.780  0.00  0.00    +0.000 C 
BRANCH  16  17
ATOM     17  C   UNL     1     -16.672 -14.214  -5.663  0.00  0.00    +0.000 C 
ATOM     18  C   UNL     1     -17.150 -12.901  -5.123  0.00  0.00    +0.000 C 
ATOM     19  C   UNL     1     -16.760 -14.464  -6.926  0.00  0.00    +0.000 C 
ATOM     20  O   UNL     1     -15.896 -14.632  -9.076  0.00  0.00    +0.000 OA
ATOM     21  C   UNL     1     -16.839 -14.747  -8.316  0.00  0.00    +0.000 C 
BRANCH  21  22
ATOM     22  O   UNL     1     -18.046 -15.176  -8.718  0.00  0.00    +0.000 OA
ATOM     23  H   UNL     1     -18.605 -14.372  -8.700  0.00  0.00    +0.000 HD
ENDBRANCH  21  22
ENDBRANCH  16  17
ENDBRANCH  14  15
ENDBRANCH   1  14
TORSDOF 6
ENDMDL
MODEL 6
REMARK VINA RESULT:      -5.2     13.299     15.060
REMARK  Name = RetinoicAcid.pdbqt.pdb
REMARK  6 active torsions:
REMARK  status: ('A' for Active; 'I' for Inactive)
REMARK    1  A    between atoms: C_1  and  C_3
REMARK    2  A    between atoms: C_1  and  C_5
REMARK    3  A    between atoms: C_3  and  C_15
REMARK    4  A    between atoms: C_4  and  C_9
REMARK    5  A    between atoms: C_16  and  C_17
REMARK    6  A    between atoms: C_21  and  O_22
REMARK                            x       y       z     vdW  Elec       q    Type
REMARK                         _______ _______ _______ _____ _____    ______ ____
ROOT
ATOM      1  C   UNL     1       0.978 -16.872  -2.704  0.00  0.00    +0.000 C 
ATOM      2  C   UNL     1       2.281 -17.462  -2.260  0.00  0.00    +0.000 C 
ENDROOT
BRANCH   1   4
ATOM      3  C   UNL     1      -1.214 -17.382  -1.364  0.00  0.00    +0.000 C 
ATOM      4  C   UNL     1      -0.207 -17.142  -1.977  0.00  0.00    +0.000 C 
BRANCH   3   8
ATOM      5  C   UNL     1      -2.358 -18.635   0.608  0.00  0.00    +0.000 C 
ATOM      6  C   UNL     1      -3.724 -18.754   1.171  0.00  0.00    +0.000 C 
ATOM      7  C   UNL     1      -5.144 -18.268   0.958  0.00  0.00    +0.000 C 
ATOM      8  C   UNL     1      -2.421 -17.677  -0.628  0.00  0.00    +0.000 C 
ATOM      9  C   UNL     1      -4.766 -17.434  -0.246  0.00  0.00    +0.000 C 
ATOM     10  C   UNL     1      -3.600 -17.121  -1.001  0.00  0.00    +0.000 C 
ATOM     11  C   UNL     1      -1.857 -20.029   0.142  0.00  0.00    +0.000 C 
ATOM     12  C   UNL     1      -1.401 -18.020   1.668  0.00  0.00    +0.000 C 
ATOM     13  C   UNL     1      -3.767 -16.179  -2.161  0.00  0.00    +0.000 C 
ENDBRANCH   3   8
ENDBRANCH   1   4
BRANCH   1  14
ATOM     14  C   UNL     1       0.927 -16.153  -3.781  0.00  0.00    +0.000 C 
BRANCH  14  15
ATOM     15  C   UNL     1       0.869 -15.301  -5.055  0.00  0.00    +0.000 C 
ATOM     16  C   UNL     1       0.822 -14.634  -6.052  0.00  0.00    +0.000 C 
BRANCH  16  17
ATOM     17  C   UNL     1       0.763 -13.843  -7.225  0.00  0.00    +0.000 C 
ATOM     18  C   UNL     1      -0.408 -12.938  -7.455  0.00  0.00    +0.000 C 
ATOM     19  C   UNL     1       1.699 -13.927  -8.109  0.00  0.00    +0.000 C 
ATOM     20  O   UNL     1       3.796 -13.417  -8.970  0.00  0.00    +0.000 OA
ATOM     21  C   UNL     1       2.742 -14.018  -9.069  0.00  0.00    +0.000 C 
BRANCH  21  22
ATOM     22  O   UNL     1       2.475 -14.849 -10.090  0.00  0.00    +0.000 OA
ATOM     23  H   UNL     1       2.955 -14.458 -10.849  0.00  0.00    +0.000 HD
ENDBRANCH  21  22
ENDBRANCH  16  17
ENDBRANCH  14  15
ENDBRANCH   1  14
TORSDOF 6
ENDMDL
MODEL 7
REMARK VINA RESULT:      -5.2     13.281     15.092
REMARK  Name = RetinoicAcid.pdbqt.pdb
REMARK  6 active torsions:
REMARK  status: ('A' for Active; 'I' for Inactive)
REMARK    1  A    between atoms: C_1  and  C_3
REMARK    2  A    between atoms: C_1  and  C_5
REMARK    3  A    between atoms: C_3  and  C_15
REMARK    4  A    between atoms: C_4  and  C_9
REMARK    5  A    between atoms: C_16  and  C_17
REMARK    6  A    between atoms: C_21  and  O_22
REMARK                            x       y       z     vdW  Elec       q    Type
REMARK                         _______ _______ _______ _____ _____    ______ ____
ROOT
ATOM      1  C   UNL     1       0.974 -17.509  -2.027  0.00  0.00    +0.000 C 
ATOM      2  C   UNL     1       2.133 -18.332  -1.556  0.00  0.00    +0.000 C 
ENDROOT
BRANCH   1   4
ATOM      3  C   UNL     1      -1.359 -17.740  -0.858  0.00  0.00    +0.000 C 
ATOM      4  C   UNL     1      -0.286 -17.629  -1.392  0.00  0.00    +0.000 C 
BRANCH   3   8
ATOM      5  C   UNL     1      -3.725 -16.761  -0.398  0.00  0.00    +0.000 C 
ATOM      6  C   UNL     1      -4.938 -17.163   0.351  0.00  0.00    +0.000 C 
ATOM      7  C   UNL     1      -5.483 -18.278   1.222  0.00  0.00    +0.000 C 
ATOM      8  C   UNL     1      -2.646 -17.881  -0.219  0.00  0.00    +0.000 C 
ATOM      9  C   UNL     1      -4.204 -19.082   1.134  0.00  0.00    +0.000 C 
ATOM     10  C   UNL     1      -2.921 -18.980   0.525  0.00  0.00    +0.000 C 
ATOM     11  C   UNL     1      -3.169 -15.428   0.174  0.00  0.00    +0.000 C 
ATOM     12  C   UNL     1      -4.058 -16.626  -1.911  0.00  0.00    +0.000 C 
ATOM     13  C   UNL     1      -1.963 -20.117   0.749  0.00  0.00    +0.000 C 
ENDBRANCH   3   8
ENDBRANCH   1   4
BRANCH   1  14
ATOM     14  C   UNL     1       1.112 -16.721  -3.047  0.00  0.00    +0.000 C 
BRANCH  14  15
ATOM     15  C   UNL     1       1.277 -15.791  -4.256  0.00  0.00    +0.000 C 
ATOM     16  C   UNL     1       1.406 -15.062  -5.200  0.00  0.00    +0.000 C 
BRANCH  16  17
ATOM     17  C   UNL     1       1.561 -14.199  -6.311  0.00  0.00    +0.000 C 
ATOM     18  C   UNL     1       0.714 -12.968  -6.423  0.00  0.00    +0.000 C 
ATOM     19  C   UNL     1       2.408 -14.488  -7.242  0.00  0.00    +0.000 C 
ATOM     20  O   UNL     1       4.540 -14.562  -8.162  0.00  0.00    +0.000 OA
ATOM     21  C   UNL     1       3.351 -14.810  -8.253  0.00  0.00    +0.000 C 
BRANCH  21  22
ATOM     22  O   UNL     1       2.821 -15.437  -9.316  0.00  0.00    +0.000 OA
ATOM     23  H   UNL     1       3.225 -14.986 -10.086  0.00  0.00    +0.000 HD
ENDBRANCH  21  22
ENDBRANCH  16  17
ENDBRANCH  14  15
ENDBRANCH   1  14
TORSDOF 6
ENDMDL
MODEL 8
REMARK VINA RESULT:      -5.2     13.895     16.561
REMARK  Name = RetinoicAcid.pdbqt.pdb
REMARK  6 active torsions:
REMARK  status: ('A' for Active; 'I' for Inactive)
REMARK    1  A    between atoms: C_1  and  C_3
REMARK    2  A    between atoms: C_1  and  C_5
REMARK    3  A    between atoms: C_3  and  C_15
REMARK    4  A    between atoms: C_4  and  C_9
REMARK    5  A    between atoms: C_16  and  C_17
REMARK    6  A    between atoms: C_21  and  O_22
REMARK                            x       y       z     vdW  Elec       q    Type
REMARK                         _______ _______ _______ _____ _____    ______ ____
ROOT
ATOM      1  C   UNL     1      -4.842 -13.693 -14.379  0.00  0.00    +0.000 C 
ATOM      2  C   UNL     1      -3.497 -14.168 -14.833  0.00  0.00    +0.000 C 
ENDROOT
BRANCH   1   4
ATOM      3  C   UNL     1      -7.006 -14.896 -15.234  0.00  0.00    +0.000 C 
ATOM      4  C   UNL     1      -6.016 -14.339 -14.840  0.00  0.00    +0.000 C 
BRANCH   3   8
ATOM      5  C   UNL     1      -9.525 -14.768 -15.874  0.00  0.00    +0.000 C 
ATOM      6  C   UNL     1     -10.565 -15.696 -16.377  0.00  0.00    +0.000 C 
ATOM      7  C   UNL     1     -10.773 -17.143 -16.779  0.00  0.00    +0.000 C 
ATOM      8  C   UNL     1      -8.191 -15.571 -15.708  0.00  0.00    +0.000 C 
ATOM      9  C   UNL     1      -9.337 -17.517 -16.483  0.00  0.00    +0.000 C 
ATOM     10  C   UNL     1      -8.148 -16.891 -16.014  0.00  0.00    +0.000 C 
ATOM     11  C   UNL     1      -9.948 -14.199 -14.493  0.00  0.00    +0.000 C 
ATOM     12  C   UNL     1      -9.294 -13.626 -16.904  0.00  0.00    +0.000 C 
ATOM     13  C   UNL     1      -6.918 -17.750 -15.904  0.00  0.00    +0.000 C 
ENDBRANCH   3   8
ENDBRANCH   1   4
BRANCH   1  14
ATOM     14  C   UNL     1      -4.935 -12.660 -13.601  0.00  0.00    +0.000 C 
BRANCH  14  15
ATOM     15  C   UNL     1      -5.047 -11.438 -12.680  0.00  0.00    +0.000 C 
ATOM     16  C   UNL     1      -5.136 -10.482 -11.960  0.00  0.00    +0.000 C 
BRANCH  16  17
ATOM     17  C   UNL     1      -5.245  -9.358 -11.107  0.00  0.00    +0.000 C 
ATOM     18  C   UNL     1      -5.881  -8.099 -11.613  0.00  0.00    +0.000 C 
ATOM     19  C   UNL     1      -4.769  -9.406  -9.909  0.00  0.00    +0.000 C 
ATOM     20  O   UNL     1      -4.859  -9.975  -7.658  0.00  0.00    +0.000 OA
ATOM     21  C   UNL     1      -4.252  -9.476  -8.588  0.00  0.00    +0.000 C 
BRANCH  21  22
ATOM     22  O   UNL     1      -3.018  -8.962  -8.455  0.00  0.00    +0.000 OA
ATOM     23  H   UNL     1      -2.853  -8.512  -9.310  0.00  0.00    +0.000 HD
ENDBRANCH  21  22
ENDBRANCH  16  17
ENDBRANCH  14  15
ENDBRANCH   1  14
TORSDOF 6
ENDMDL
MODEL 9
REMARK VINA RESULT:      -5.1     14.688     17.095
REMARK  Name = RetinoicAcid.pdbqt.pdb
REMARK  6 active torsions:
REMARK  status: ('A' for Active; 'I' for Inactive)
REMARK    1  A    between atoms: C_1  and  C_3
REMARK    2  A    between atoms: C_1  and  C_5
REMARK    3  A    between atoms: C_3  and  C_15
REMARK    4  A    between atoms: C_4  and  C_9
REMARK    5  A    between atoms: C_16  and  C_17
REMARK    6  A    between atoms: C_21  and  O_22
REMARK                            x       y       z     vdW  Elec       q    Type
REMARK                         _______ _______ _______ _____ _____    ______ ____
ROOT
ATOM      1  C   UNL     1       0.806 -17.074  -2.645  0.00  0.00    +0.000 C 
ATOM      2  C   UNL     1       0.924 -15.809  -3.439  0.00  0.00    +0.000 C 
ENDROOT
BRANCH   1   4
ATOM      3  C   UNL     1      -1.347 -17.550  -1.233  0.00  0.00    +0.000 C 
ATOM      4  C   UNL     1      -0.358 -17.326  -1.880  0.00  0.00    +0.000 C 
BRANCH   3   8
ATOM      5  C   UNL     1      -2.453 -18.813   0.755  0.00  0.00    +0.000 C 
ATOM      6  C   UNL     1      -3.799 -18.904   1.368  0.00  0.00    +0.000 C 
ATOM      7  C   UNL     1      -5.211 -18.373   1.220  0.00  0.00    +0.000 C 
ATOM      8  C   UNL     1      -2.533 -17.826  -0.457  0.00  0.00    +0.000 C 
ATOM      9  C   UNL     1      -4.854 -17.524   0.020  0.00  0.00    +0.000 C 
ATOM     10  C   UNL     1      -3.709 -17.228  -0.773  0.00  0.00    +0.000 C 
ATOM     11  C   UNL     1      -2.011 -20.210   0.241  0.00  0.00    +0.000 C 
ATOM     12  C   UNL     1      -1.439 -18.248   1.790  0.00  0.00    +0.000 C 
ATOM     13  C   UNL     1      -3.892 -16.257  -1.907  0.00  0.00    +0.000 C 
ENDBRANCH   3   8
ENDBRANCH   1   4
BRANCH   1  14
ATOM     14  C   UNL     1       1.791 -17.916  -2.621  0.00  0.00    +0.000 C 
BRANCH  14  15
ATOM     15  C   UNL     1       2.956 -18.915  -2.592  0.00  0.00    +0.000 C 
ATOM     16  C   UNL     1       3.867 -19.696  -2.572  0.00  0.00    +0.000 C 
BRANCH  16  17
ATOM     17  C   UNL     1       4.945 -20.613  -2.550  0.00  0.00    +0.000 C 
ATOM     18  C   UNL     1       6.284 -20.176  -2.041  0.00  0.00    +0.000 C 
ATOM     19  C   UNL     1       4.782 -21.813  -2.998  0.00  0.00    +0.000 C 
ATOM     20  O   UNL     1       4.093 -24.024  -2.816  0.00  0.00    +0.000 OA
ATOM     21  C   UNL     1       4.588 -23.134  -3.482  0.00  0.00    +0.000 C 
BRANCH  21  22
ATOM     22  O   UNL     1       4.978 -23.312  -4.755  0.00  0.00    +0.000 OA
ATOM     23  H   UNL     1       4.934 -22.416  -5.148  0.00  0.00    +0.000 HD
ENDBRANCH  21  22
ENDBRANCH  16  17
ENDBRANCH  14  15
ENDBRANCH   1  14
TORSDOF 6
ENDMDL
