MODEL 1
REMARK VINA RESULT:      -6.6      0.000      0.000
REMARK  Name = SB_202190.pdbqt.pdb
REMARK  4 active torsions:
REMARK  status: ('A' for Active; 'I' for Inactive)
REMARK    1  A    between atoms: C_4  and  C_7
REMARK    2  A    between atoms: C_5  and  C_19
REMARK    3  A    between atoms: C_6  and  C_8
REMARK    4  A    between atoms: C_15  and  O_26
REMARK                            x       y       z     vdW  Elec       q    Type
REMARK                         _______ _______ _______ _____ _____    ______ ____
ROOT
ATOM      1  N   UNL     1      -7.166 -34.651  -5.426  0.00  0.00    +0.000 N 
ATOM      2  N   UNL     1      -6.538 -32.716  -4.593  0.00  0.00    +0.000 NA
ATOM      3  C   UNL     1      -7.886 -34.519  -4.256  0.00  0.00    +0.000 A 
ATOM      4  C   UNL     1      -7.445 -33.308  -3.741  0.00  0.00    +0.000 A 
ATOM      5  C   UNL     1      -6.377 -33.541  -5.606  0.00  0.00    +0.000 A 
ATOM      6  H   UNL     1      -7.234 -35.422  -6.075  0.00  0.00    +0.000 HD
ENDROOT
BRANCH   4   7
ATOM      7  C   UNL     1      -7.817 -32.681  -2.490  0.00  0.00    +0.000 A 
ATOM      8  C   UNL     1      -6.877 -32.461  -1.481  0.00  0.00    +0.000 A 
ATOM      9  C   UNL     1      -7.242 -31.815  -0.302  0.00  0.00    +0.000 A 
ATOM     10  C   UNL     1      -8.551 -31.376  -0.145  0.00  0.00    +0.000 A 
ATOM     11  F   UNL     1      -8.907 -30.758   0.989  0.00  0.00    +0.000 F 
ATOM     12  C   UNL     1      -9.497 -31.568  -1.145  0.00  0.00    +0.000 A 
ATOM     13  C   UNL     1      -9.123 -32.216  -2.320  0.00  0.00    +0.000 A 
ENDBRANCH   4   7
BRANCH   3  15
ATOM     14  N   UNL     1     -10.763 -37.439  -3.073  0.00  0.00    +0.000 NA
ATOM     15  C   UNL     1      -8.875 -35.508  -3.835  0.00  0.00    +0.000 A 
ATOM     16  C   UNL     1     -10.225 -35.336  -4.133  0.00  0.00    +0.000 A 
ATOM     17  C   UNL     1      -8.478 -36.663  -3.163  0.00  0.00    +0.000 A 
ATOM     18  C   UNL     1     -11.119 -36.315  -3.732  0.00  0.00    +0.000 A 
ATOM     19  C   UNL     1      -9.450 -37.583  -2.803  0.00  0.00    +0.000 A 
ENDBRANCH   3  15
BRANCH   5  20
ATOM     20  C   UNL     1      -5.503 -33.336  -6.756  0.00  0.00    +0.000 A 
ATOM     21  C   UNL     1      -4.268 -32.704  -6.585  0.00  0.00    +0.000 A 
ATOM     22  C   UNL     1      -5.873 -33.760  -8.035  0.00  0.00    +0.000 A 
ATOM     23  C   UNL     1      -3.417 -32.497  -7.668  0.00  0.00    +0.000 A 
ATOM     24  C   UNL     1      -5.030 -33.558  -9.125  0.00  0.00    +0.000 A 
ATOM     25  C   UNL     1      -3.807 -32.928  -8.932  0.00  0.00    +0.000 A 
BRANCH  25  26
ATOM     26  O   UNL     1      -2.995 -32.740 -10.012  0.00  0.00    +0.000 OA
ATOM     27  H   UNL     1      -2.172 -33.238  -9.865  0.00  0.00    +0.000 HD
ENDBRANCH  25  26
ENDBRANCH   5  20
TORSDOF 4
ENDMDL
MODEL 2
REMARK VINA RESULT:      -6.5      4.331      7.453
REMARK  Name = SB_202190.pdbqt.pdb
REMARK  4 active torsions:
REMARK  status: ('A' for Active; 'I' for Inactive)
REMARK    1  A    between atoms: C_4  and  C_7
REMARK    2  A    between atoms: C_5  and  C_19
REMARK    3  A    between atoms: C_6  and  C_8
REMARK    4  A    between atoms: C_15  and  O_26
REMARK                            x       y       z     vdW  Elec       q    Type
REMARK                         _______ _______ _______ _____ _____    ______ ____
ROOT
ATOM      1  N   UNL     1      -5.839 -34.215  -2.944  0.00  0.00    +0.000 N 
ATOM      2  N   UNL     1      -6.683 -32.803  -4.403  0.00  0.00    +0.000 NA
ATOM      3  C   UNL     1      -5.235 -34.540  -4.142  0.00  0.00    +0.000 A 
ATOM      4  C   UNL     1      -5.809 -33.654  -5.043  0.00  0.00    +0.000 A 
ATOM      5  C   UNL     1      -6.693 -33.155  -3.134  0.00  0.00    +0.000 A 
ATOM      6  H   UNL     1      -5.657 -34.656  -2.054  0.00  0.00    +0.000 HD
ENDROOT
BRANCH   4   7
ATOM      7  C   UNL     1      -5.596 -33.572  -6.473  0.00  0.00    +0.000 A 
ATOM      8  C   UNL     1      -4.678 -32.673  -7.020  0.00  0.00    +0.000 A 
ATOM      9  C   UNL     1      -4.452 -32.639  -8.394  0.00  0.00    +0.000 A 
ATOM     10  C   UNL     1      -5.139 -33.523  -9.217  0.00  0.00    +0.000 A 
ATOM     11  F   UNL     1      -4.927 -33.490 -10.540  0.00  0.00    +0.000 F 
ATOM     12  C   UNL     1      -6.043 -34.438  -8.691  0.00  0.00    +0.000 A 
ATOM     13  C   UNL     1      -6.263 -34.464  -7.316  0.00  0.00    +0.000 A 
ENDBRANCH   4   7
BRANCH   3  15
ATOM     14  N   UNL     1      -2.234 -37.553  -4.482  0.00  0.00    +0.000 NA
ATOM     15  C   UNL     1      -4.213 -35.578  -4.241  0.00  0.00    +0.000 A 
ATOM     16  C   UNL     1      -4.535 -36.853  -4.700  0.00  0.00    +0.000 A 
ATOM     17  C   UNL     1      -2.886 -35.297  -3.916  0.00  0.00    +0.000 A 
ATOM     18  C   UNL     1      -3.524 -37.795  -4.798  0.00  0.00    +0.000 A 
ATOM     19  C   UNL     1      -1.948 -36.309  -4.046  0.00  0.00    +0.000 A 
ENDBRANCH   3  15
BRANCH   5  20
ATOM     20  C   UNL     1      -7.478 -32.535  -2.072  0.00  0.00    +0.000 A 
ATOM     21  C   UNL     1      -8.841 -32.295  -2.268  0.00  0.00    +0.000 A 
ATOM     22  C   UNL     1      -6.895 -32.175  -0.854  0.00  0.00    +0.000 A 
ATOM     23  C   UNL     1      -9.611 -31.705  -1.268  0.00  0.00    +0.000 A 
ATOM     24  C   UNL     1      -7.656 -31.584   0.152  0.00  0.00    +0.000 A 
ATOM     25  C   UNL     1      -9.009 -31.354  -0.064  0.00  0.00    +0.000 A 
BRANCH  25  26
ATOM     26  O   UNL     1      -9.736 -30.775   0.935  0.00  0.00    +0.000 OA
ATOM     27  H   UNL     1     -10.613 -30.546   0.580  0.00  0.00    +0.000 HD
ENDBRANCH  25  26
ENDBRANCH   5  20
TORSDOF 4
ENDMDL
MODEL 3
REMARK VINA RESULT:      -6.0      5.175      6.928
REMARK  Name = SB_202190.pdbqt.pdb
REMARK  4 active torsions:
REMARK  status: ('A' for Active; 'I' for Inactive)
REMARK    1  A    between atoms: C_4  and  C_7
REMARK    2  A    between atoms: C_5  and  C_19
REMARK    3  A    between atoms: C_6  and  C_8
REMARK    4  A    between atoms: C_15  and  O_26
REMARK                            x       y       z     vdW  Elec       q    Type
REMARK                         _______ _______ _______ _____ _____    ______ ____
ROOT
ATOM      1  N   UNL     1      -4.511 -35.517  -2.605  0.00  0.00    +0.000 N 
ATOM      2  N   UNL     1      -3.335 -35.651  -4.457  0.00  0.00    +0.000 NA
ATOM      3  C   UNL     1      -5.186 -34.724  -3.511  0.00  0.00    +0.000 A 
ATOM      4  C   UNL     1      -4.404 -34.806  -4.655  0.00  0.00    +0.000 A 
ATOM      5  C   UNL     1      -3.410 -36.072  -3.212  0.00  0.00    +0.000 A 
ATOM      6  H   UNL     1      -4.797 -35.698  -1.653  0.00  0.00    +0.000 HD
ENDROOT
BRANCH   4   7
ATOM      7  C   UNL     1      -4.597 -34.124  -5.918  0.00  0.00    +0.000 A 
ATOM      8  C   UNL     1      -3.948 -32.920  -6.200  0.00  0.00    +0.000 A 
ATOM      9  C   UNL     1      -4.109 -32.302  -7.438  0.00  0.00    +0.000 A 
ATOM     10  C   UNL     1      -4.911 -32.906  -8.399  0.00  0.00    +0.000 A 
ATOM     11  F   UNL     1      -5.071 -32.312  -9.590  0.00  0.00    +0.000 F 
ATOM     12  C   UNL     1      -5.550 -34.113  -8.146  0.00  0.00    +0.000 A 
ATOM     13  C   UNL     1      -5.384 -34.723  -6.905  0.00  0.00    +0.000 A 
ENDBRANCH   4   7
BRANCH   3  15
ATOM     14  N   UNL     1      -8.858 -32.758  -2.587  0.00  0.00    +0.000 NA
ATOM     15  C   UNL     1      -6.445 -34.063  -3.179  0.00  0.00    +0.000 A 
ATOM     16  C   UNL     1      -6.482 -33.026  -2.250  0.00  0.00    +0.000 A 
ATOM     17  C   UNL     1      -7.627 -34.432  -3.819  0.00  0.00    +0.000 A 
ATOM     18  C   UNL     1      -7.698 -32.415  -1.989  0.00  0.00    +0.000 A 
ATOM     19  C   UNL     1      -8.793 -33.761  -3.487  0.00  0.00    +0.000 A 
ENDBRANCH   3  15
BRANCH   5  20
ATOM     20  C   UNL     1      -2.484 -36.985  -2.551  0.00  0.00    +0.000 A 
ATOM     21  C   UNL     1      -1.645 -37.797  -3.319  0.00  0.00    +0.000 A 
ATOM     22  C   UNL     1      -2.415 -37.068  -1.158  0.00  0.00    +0.000 A 
ATOM     23  C   UNL     1      -0.753 -38.677  -2.711  0.00  0.00    +0.000 A 
ATOM     24  C   UNL     1      -1.527 -37.944  -0.540  0.00  0.00    +0.000 A 
ATOM     25  C   UNL     1      -0.701 -38.742  -1.322  0.00  0.00    +0.000 A 
BRANCH  25  26
ATOM     26  O   UNL     1       0.162 -39.593  -0.696  0.00  0.00    +0.000 OA
ATOM     27  H   UNL     1       0.324 -39.256   0.202  0.00  0.00    +0.000 HD
ENDBRANCH  25  26
ENDBRANCH   5  20
TORSDOF 4
ENDMDL
MODEL 4
REMARK VINA RESULT:      -5.9     17.218     19.369
REMARK  Name = SB_202190.pdbqt.pdb
REMARK  4 active torsions:
REMARK  status: ('A' for Active; 'I' for Inactive)
REMARK    1  A    between atoms: C_4  and  C_7
REMARK    2  A    between atoms: C_5  and  C_19
REMARK    3  A    between atoms: C_6  and  C_8
REMARK    4  A    between atoms: C_15  and  O_26
REMARK                            x       y       z     vdW  Elec       q    Type
REMARK                         _______ _______ _______ _____ _____    ______ ____
ROOT
ATOM      1  N   UNL     1      -2.810 -14.181  -2.608  0.00  0.00    +0.000 N 
ATOM      2  N   UNL     1      -2.040 -16.234  -2.459  0.00  0.00    +0.000 NA
ATOM      3  C   UNL     1      -3.444 -14.718  -1.505  0.00  0.00    +0.000 A 
ATOM      4  C   UNL     1      -2.961 -16.018  -1.458  0.00  0.00    +0.000 A 
ATOM      5  C   UNL     1      -1.960 -15.116  -3.148  0.00  0.00    +0.000 A 
ATOM      6  H   UNL     1      -2.919 -13.236  -2.947  0.00  0.00    +0.000 HD
ENDROOT
BRANCH   4   7
ATOM      7  C   UNL     1      -3.326 -17.072  -0.535  0.00  0.00    +0.000 A 
ATOM      8  C   UNL     1      -4.660 -17.324  -0.209  0.00  0.00    +0.000 A 
ATOM      9  C   UNL     1      -4.996 -18.372   0.645  0.00  0.00    +0.000 A 
ATOM     10  C   UNL     1      -3.987 -19.179   1.158  0.00  0.00    +0.000 A 
ATOM     11  F   UNL     1      -4.306 -20.185   1.983  0.00  0.00    +0.000 F 
ATOM     12  C   UNL     1      -2.655 -18.958   0.832  0.00  0.00    +0.000 A 
ATOM     13  C   UNL     1      -2.329 -17.907  -0.022  0.00  0.00    +0.000 A 
ENDBRANCH   4   7
BRANCH   3  15
ATOM     14  N   UNL     1      -6.067 -12.381   0.915  0.00  0.00    +0.000 NA
ATOM     15  C   UNL     1      -4.351 -13.934  -0.671  0.00  0.00    +0.000 A 
ATOM     16  C   UNL     1      -4.103 -13.768   0.690  0.00  0.00    +0.000 A 
ATOM     17  C   UNL     1      -5.462 -13.305  -1.233  0.00  0.00    +0.000 A 
ATOM     18  C   UNL     1      -4.981 -12.994   1.431  0.00  0.00    +0.000 A 
ATOM     19  C   UNL     1      -6.281 -12.554  -0.405  0.00  0.00    +0.000 A 
ENDBRANCH   3  15
BRANCH   5  20
ATOM     20  C   UNL     1      -1.111 -14.875  -4.310  0.00  0.00    +0.000 A 
ATOM     21  C   UNL     1       0.274 -15.021  -4.199  0.00  0.00    +0.000 A 
ATOM     22  C   UNL     1      -1.655 -14.501  -5.542  0.00  0.00    +0.000 A 
ATOM     23  C   UNL     1       1.105 -14.798  -5.294  0.00  0.00    +0.000 A 
ATOM     24  C   UNL     1      -0.833 -14.274  -6.643  0.00  0.00    +0.000 A 
ATOM     25  C   UNL     1       0.541 -14.425  -6.510  0.00  0.00    +0.000 A 
BRANCH  25  26
ATOM     26  O   UNL     1       1.328 -14.199  -7.602  0.00  0.00    +0.000 OA
ATOM     27  H   UNL     1       1.508 -13.244  -7.655  0.00  0.00    +0.000 HD
ENDBRANCH  25  26
ENDBRANCH   5  20
TORSDOF 4
ENDMDL
MODEL 5
REMARK VINA RESULT:      -5.9     12.671     14.480
REMARK  Name = SB_202190.pdbqt.pdb
REMARK  4 active torsions:
REMARK  status: ('A' for Active; 'I' for Inactive)
REMARK    1  A    between atoms: C_4  and  C_7
REMARK    2  A    between atoms: C_5  and  C_19
REMARK    3  A    between atoms: C_6  and  C_8
REMARK    4  A    between atoms: C_15  and  O_26
REMARK                            x       y       z     vdW  Elec       q    Type
REMARK                         _______ _______ _______ _____ _____    ______ ____
ROOT
ATOM      1  N   UNL     1       5.230 -27.654  -3.944  0.00  0.00    +0.000 N 
ATOM      2  N   UNL     1       4.506 -27.598  -1.869  0.00  0.00    +0.000 NA
ATOM      3  C   UNL     1       5.294 -28.964  -3.511  0.00  0.00    +0.000 A 
ATOM      4  C   UNL     1       4.861 -28.889  -2.194  0.00  0.00    +0.000 A 
ATOM      5  C   UNL     1       4.737 -26.862  -2.935  0.00  0.00    +0.000 A 
ATOM      6  H   UNL     1       5.468 -27.328  -4.870  0.00  0.00    +0.000 HD
ENDROOT
BRANCH   4   7
ATOM      7  C   UNL     1       4.776 -29.957  -1.220  0.00  0.00    +0.000 A 
ATOM      8  C   UNL     1       3.575 -30.628  -0.980  0.00  0.00    +0.000 A 
ATOM      9  C   UNL     1       3.522 -31.683  -0.074  0.00  0.00    +0.000 A 
ATOM     10  C   UNL     1       4.684 -32.076   0.580  0.00  0.00    +0.000 A 
ATOM     11  F   UNL     1       4.636 -33.088   1.456  0.00  0.00    +0.000 F 
ATOM     12  C   UNL     1       5.894 -31.434   0.342  0.00  0.00    +0.000 A 
ATOM     13  C   UNL     1       5.937 -30.379  -0.566  0.00  0.00    +0.000 A 
ENDBRANCH   4   7
BRANCH   3  15
ATOM     14  N   UNL     1       6.471 -32.188  -6.044  0.00  0.00    +0.000 NA
ATOM     15  C   UNL     1       5.704 -30.054  -4.390  0.00  0.00    +0.000 A 
ATOM     16  C   UNL     1       6.998 -30.568  -4.332  0.00  0.00    +0.000 A 
ATOM     17  C   UNL     1       4.794 -30.628  -5.277  0.00  0.00    +0.000 A 
ATOM     18  C   UNL     1       7.330 -31.619  -5.171  0.00  0.00    +0.000 A 
ATOM     19  C   UNL     1       5.224 -31.675  -6.077  0.00  0.00    +0.000 A 
ENDBRANCH   3  15
BRANCH   5  20
ATOM     20  C   UNL     1       4.513 -25.425  -3.058  0.00  0.00    +0.000 A 
ATOM     21  C   UNL     1       4.325 -24.858  -4.321  0.00  0.00    +0.000 A 
ATOM     22  C   UNL     1       4.482 -24.596  -1.933  0.00  0.00    +0.000 A 
ATOM     23  C   UNL     1       4.109 -23.490  -4.463  0.00  0.00    +0.000 A 
ATOM     24  C   UNL     1       4.268 -23.226  -2.064  0.00  0.00    +0.000 A 
ATOM     25  C   UNL     1       4.083 -22.684  -3.330  0.00  0.00    +0.000 A 
BRANCH  25  26
ATOM     26  O   UNL     1       3.874 -21.340  -3.436  0.00  0.00    +0.000 OA
ATOM     27  H   UNL     1       3.302 -21.180  -4.207  0.00  0.00    +0.000 HD
ENDBRANCH  25  26
ENDBRANCH   5  20
TORSDOF 4
ENDMDL
MODEL 6
REMARK VINA RESULT:      -5.8     19.308     20.578
REMARK  Name = SB_202190.pdbqt.pdb
REMARK  4 active torsions:
REMARK  status: ('A' for Active; 'I' for Inactive)
REMARK    1  A    between atoms: C_4  and  C_7
REMARK    2  A    between atoms: C_5  and  C_19
REMARK    3  A    between atoms: C_6  and  C_8
REMARK    4  A    between atoms: C_15  and  O_26
REMARK                            x       y       z     vdW  Elec       q    Type
REMARK                         _______ _______ _______ _____ _____    ______ ____
ROOT
ATOM      1  N   UNL     1      -0.729 -18.444 -14.720  0.00  0.00    +0.000 N 
ATOM      2  N   UNL     1      -1.641 -16.777 -13.613  0.00  0.00    +0.000 NA
ATOM      3  C   UNL     1      -1.923 -18.199 -15.368  0.00  0.00    +0.000 A 
ATOM      4  C   UNL     1      -2.485 -17.167 -14.630  0.00  0.00    +0.000 A 
ATOM      5  C   UNL     1      -0.584 -17.560 -13.677  0.00  0.00    +0.000 A 
ATOM      6  H   UNL     1      -0.045 -19.137 -14.988  0.00  0.00    +0.000 HD
ENDROOT
BRANCH   4   7
ATOM      7  C   UNL     1      -3.774 -16.535 -14.816  0.00  0.00    +0.000 A 
ATOM      8  C   UNL     1      -3.996 -15.209 -14.438  0.00  0.00    +0.000 A 
ATOM      9  C   UNL     1      -5.229 -14.604 -14.666  0.00  0.00    +0.000 A 
ATOM     10  C   UNL     1      -6.236 -15.330 -15.291  0.00  0.00    +0.000 A 
ATOM     11  F   UNL     1      -7.425 -14.752 -15.508  0.00  0.00    +0.000 F 
ATOM     12  C   UNL     1      -6.031 -16.644 -15.692  0.00  0.00    +0.000 A 
ATOM     13  C   UNL     1      -4.794 -17.242 -15.458  0.00  0.00    +0.000 A 
ENDBRANCH   4   7
BRANCH   3  15
ATOM     14  N   UNL     1      -3.030 -20.355 -18.879  0.00  0.00    +0.000 NA
ATOM     15  C   UNL     1      -2.319 -18.928 -16.569  0.00  0.00    +0.000 A 
ATOM     16  C   UNL     1      -2.221 -18.337 -17.827  0.00  0.00    +0.000 A 
ATOM     17  C   UNL     1      -2.766 -20.247 -16.481  0.00  0.00    +0.000 A 
ATOM     18  C   UNL     1      -2.587 -19.081 -18.937  0.00  0.00    +0.000 A 
ATOM     19  C   UNL     1      -3.111 -20.905 -17.650  0.00  0.00    +0.000 A 
ENDBRANCH   3  15
BRANCH   5  20
ATOM     20  C   UNL     1       0.576 -17.519 -12.794  0.00  0.00    +0.000 A 
ATOM     21  C   UNL     1       1.261 -16.316 -12.604  0.00  0.00    +0.000 A 
ATOM     22  C   UNL     1       1.023 -18.664 -12.128  0.00  0.00    +0.000 A 
ATOM     23  C   UNL     1       2.371 -16.252 -11.765  0.00  0.00    +0.000 A 
ATOM     24  C   UNL     1       2.132 -18.612 -11.288  0.00  0.00    +0.000 A 
ATOM     25  C   UNL     1       2.798 -17.405 -11.113  0.00  0.00    +0.000 A 
BRANCH  25  26
ATOM     26  O   UNL     1       3.882 -17.375 -10.285  0.00  0.00    +0.000 OA
ATOM     27  H   UNL     1       3.578 -17.563  -9.379  0.00  0.00    +0.000 HD
ENDBRANCH  25  26
ENDBRANCH   5  20
TORSDOF 4
ENDMDL
MODEL 7
REMARK VINA RESULT:      -5.7      7.488     12.419
REMARK  Name = SB_202190.pdbqt.pdb
REMARK  4 active torsions:
REMARK  status: ('A' for Active; 'I' for Inactive)
REMARK    1  A    between atoms: C_4  and  C_7
REMARK    2  A    between atoms: C_5  and  C_19
REMARK    3  A    between atoms: C_6  and  C_8
REMARK    4  A    between atoms: C_15  and  O_26
REMARK                            x       y       z     vdW  Elec       q    Type
REMARK                         _______ _______ _______ _____ _____    ______ ____
ROOT
ATOM      1  N   UNL     1      -1.082 -31.691 -11.228  0.00  0.00    +0.000 N 
ATOM      2  N   UNL     1      -0.147 -33.115  -9.838  0.00  0.00    +0.000 NA
ATOM      3  C   UNL     1       0.244 -31.741 -11.611  0.00  0.00    +0.000 A 
ATOM      4  C   UNL     1       0.809 -32.621 -10.699  0.00  0.00    +0.000 A 
ATOM      5  C   UNL     1      -1.285 -32.542 -10.168  0.00  0.00    +0.000 A 
ATOM      6  H   UNL     1      -1.804 -31.146 -11.678  0.00  0.00    +0.000 HD
ENDROOT
BRANCH   4   7
ATOM      7  C   UNL     1       2.198 -33.014 -10.580  0.00  0.00    +0.000 A 
ATOM      8  C   UNL     1       3.175 -32.111 -10.157  0.00  0.00    +0.000 A 
ATOM      9  C   UNL     1       4.498 -32.518 -10.005  0.00  0.00    +0.000 A 
ATOM     10  C   UNL     1       4.835 -33.841 -10.262  0.00  0.00    +0.000 A 
ATOM     11  F   UNL     1       6.107 -34.236 -10.120  0.00  0.00    +0.000 F 
ATOM     12  C   UNL     1       3.875 -34.761 -10.665  0.00  0.00    +0.000 A 
ATOM     13  C   UNL     1       2.554 -34.344 -10.816  0.00  0.00    +0.000 A 
ENDBRANCH   4   7
BRANCH   3  15
ATOM     14  N   UNL     1       1.665 -29.580 -15.003  0.00  0.00    +0.000 NA
ATOM     15  C   UNL     1       0.748 -31.004 -12.765  0.00  0.00    +0.000 A 
ATOM     16  C   UNL     1       1.225 -31.677 -13.889  0.00  0.00    +0.000 A 
ATOM     17  C   UNL     1       0.724 -29.609 -12.779  0.00  0.00    +0.000 A 
ATOM     18  C   UNL     1       1.670 -30.929 -14.967  0.00  0.00    +0.000 A 
ATOM     19  C   UNL     1       1.194 -28.953 -13.906  0.00  0.00    +0.000 A 
ENDBRANCH   3  15
BRANCH   5  20
ATOM     20  C   UNL     1      -2.578 -32.756  -9.527  0.00  0.00    +0.000 A 
ATOM     21  C   UNL     1      -2.986 -31.913  -8.490  0.00  0.00    +0.000 A 
ATOM     22  C   UNL     1      -3.426 -33.791  -9.930  0.00  0.00    +0.000 A 
ATOM     23  C   UNL     1      -4.216 -32.097  -7.863  0.00  0.00    +0.000 A 
ATOM     24  C   UNL     1      -4.658 -33.985  -9.309  0.00  0.00    +0.000 A 
ATOM     25  C   UNL     1      -5.043 -33.135  -8.280  0.00  0.00    +0.000 A 
BRANCH  25  26
ATOM     26  O   UNL     1      -6.254 -33.342  -7.686  0.00  0.00    +0.000 OA
ATOM     27  H   UNL     1      -6.253 -32.887  -6.826  0.00  0.00    +0.000 HD
ENDBRANCH  25  26
ENDBRANCH   5  20
TORSDOF 4
ENDMDL
MODEL 8
REMARK VINA RESULT:      -5.7      3.321      5.985
REMARK  Name = SB_202190.pdbqt.pdb
REMARK  4 active torsions:
REMARK  status: ('A' for Active; 'I' for Inactive)
REMARK    1  A    between atoms: C_4  and  C_7
REMARK    2  A    between atoms: C_5  and  C_19
REMARK    3  A    between atoms: C_6  and  C_8
REMARK    4  A    between atoms: C_15  and  O_26
REMARK                            x       y       z     vdW  Elec       q    Type
REMARK                         _______ _______ _______ _____ _____    ______ ____
ROOT
ATOM      1  N   UNL     1      -9.058 -35.063  -5.005  0.00  0.00    +0.000 N 
ATOM      2  N   UNL     1     -10.488 -34.578  -3.407  0.00  0.00    +0.000 NA
ATOM      3  C   UNL     1      -8.298 -34.463  -4.020  0.00  0.00    +0.000 A 
ATOM      4  C   UNL     1      -9.232 -34.143  -3.044  0.00  0.00    +0.000 A 
ATOM      5  C   UNL     1     -10.368 -35.130  -4.596  0.00  0.00    +0.000 A 
ATOM      6  H   UNL     1      -8.705 -35.434  -5.876  0.00  0.00    +0.000 HD
ENDROOT
BRANCH   4   7
ATOM      7  C   UNL     1      -9.014 -33.441  -1.797  0.00  0.00    +0.000 A 
ATOM      8  C   UNL     1      -9.261 -32.071  -1.682  0.00  0.00    +0.000 A 
ATOM      9  C   UNL     1      -9.090 -31.420  -0.463  0.00  0.00    +0.000 A 
ATOM     10  C   UNL     1      -8.686 -32.153   0.647  0.00  0.00    +0.000 A 
ATOM     11  F   UNL     1      -8.515 -31.529   1.821  0.00  0.00    +0.000 F 
ATOM     12  C   UNL     1      -8.452 -33.520   0.559  0.00  0.00    +0.000 A 
ATOM     13  C   UNL     1      -8.625 -34.162  -0.665  0.00  0.00    +0.000 A 
ENDBRANCH   4   7
BRANCH   3  15
ATOM     14  N   UNL     1      -4.064 -34.094  -4.389  0.00  0.00    +0.000 NA
ATOM     15  C   UNL     1      -6.849 -34.323  -4.132  0.00  0.00    +0.000 A 
ATOM     16  C   UNL     1      -5.998 -35.001  -3.262  0.00  0.00    +0.000 A 
ATOM     17  C   UNL     1      -6.291 -33.538  -5.141  0.00  0.00    +0.000 A 
ATOM     18  C   UNL     1      -4.631 -34.853  -3.427  0.00  0.00    +0.000 A 
ATOM     19  C   UNL     1      -4.911 -33.453  -5.221  0.00  0.00    +0.000 A 
ENDBRANCH   3  15
BRANCH   5  20
ATOM     20  C   UNL     1     -11.441 -35.727  -5.383  0.00  0.00    +0.000 A 
ATOM     21  C   UNL     1     -12.705 -35.130  -5.399  0.00  0.00    +0.000 A 
ATOM     22  C   UNL     1     -11.235 -36.892  -6.128  0.00  0.00    +0.000 A 
ATOM     23  C   UNL     1     -13.745 -35.682  -6.143  0.00  0.00    +0.000 A 
ATOM     24  C   UNL     1     -12.268 -37.452  -6.875  0.00  0.00    +0.000 A 
ATOM     25  C   UNL     1     -13.516 -36.842  -6.876  0.00  0.00    +0.000 A 
BRANCH  25  26
ATOM     26  O   UNL     1     -14.514 -37.407  -7.615  0.00  0.00    +0.000 OA
ATOM     27  H   UNL     1     -14.140 -38.160  -8.106  0.00  0.00    +0.000 HD
ENDBRANCH  25  26
ENDBRANCH   5  20
TORSDOF 4
ENDMDL
MODEL 9
REMARK VINA RESULT:      -5.6     16.920     18.829
REMARK  Name = SB_202190.pdbqt.pdb
REMARK  4 active torsions:
REMARK  status: ('A' for Active; 'I' for Inactive)
REMARK    1  A    between atoms: C_4  and  C_7
REMARK    2  A    between atoms: C_5  and  C_19
REMARK    3  A    between atoms: C_6  and  C_8
REMARK    4  A    between atoms: C_15  and  O_26
REMARK                            x       y       z     vdW  Elec       q    Type
REMARK                         _______ _______ _______ _____ _____    ______ ____
ROOT
ATOM      1  N   UNL     1     -17.039 -17.391  -3.839  0.00  0.00    +0.000 N 
ATOM      2  N   UNL     1     -15.118 -16.439  -3.354  0.00  0.00    +0.000 NA
ATOM      3  C   UNL     1     -16.642 -17.978  -2.654  0.00  0.00    +0.000 A 
ATOM      4  C   UNL     1     -15.418 -17.379  -2.392  0.00  0.00    +0.000 A 
ATOM      5  C   UNL     1     -16.105 -16.459  -4.224  0.00  0.00    +0.000 A 
ATOM      6  H   UNL     1     -17.899 -17.584  -4.332  0.00  0.00    +0.000 HD
ENDROOT
BRANCH   4   7
ATOM      7  C   UNL     1     -14.507 -17.650  -1.300  0.00  0.00    +0.000 A 
ATOM      8  C   UNL     1     -14.591 -16.951  -0.094  0.00  0.00    +0.000 A 
ATOM      9  C   UNL     1     -13.737 -17.256   0.963  0.00  0.00    +0.000 A 
ATOM     10  C   UNL     1     -12.807 -18.279   0.811  0.00  0.00    +0.000 A 
ATOM     11  F   UNL     1     -11.981 -18.572   1.824  0.00  0.00    +0.000 F 
ATOM     12  C   UNL     1     -12.719 -18.999  -0.374  0.00  0.00    +0.000 A 
ATOM     13  C   UNL     1     -13.578 -18.686  -1.425  0.00  0.00    +0.000 A 
ENDBRANCH   4   7
BRANCH   3  15
ATOM     14  N   UNL     1     -19.092 -20.843  -0.656  0.00  0.00    +0.000 NA
ATOM     15  C   UNL     1     -17.472 -18.954  -1.953  0.00  0.00    +0.000 A 
ATOM     16  C   UNL     1     -18.648 -18.563  -1.316  0.00  0.00    +0.000 A 
ATOM     17  C   UNL     1     -17.121 -20.303  -1.944  0.00  0.00    +0.000 A 
ATOM     18  C   UNL     1     -19.412 -19.532  -0.687  0.00  0.00    +0.000 A 
ATOM     19  C   UNL     1     -17.951 -21.195  -1.285  0.00  0.00    +0.000 A 
ENDBRANCH   3  15
BRANCH   5  20
ATOM     20  C   UNL     1     -16.219 -15.632  -5.420  0.00  0.00    +0.000 A 
ATOM     21  C   UNL     1     -15.367 -14.538  -5.591  0.00  0.00    +0.000 A 
ATOM     22  C   UNL     1     -17.168 -15.910  -6.408  0.00  0.00    +0.000 A 
ATOM     23  C   UNL     1     -15.457 -13.734  -6.725  0.00  0.00    +0.000 A 
ATOM     24  C   UNL     1     -17.267 -15.113  -7.545  0.00  0.00    +0.000 A 
ATOM     25  C   UNL     1     -16.409 -14.030  -7.695  0.00  0.00    +0.000 A 
BRANCH  25  26
ATOM     26  O   UNL     1     -16.522 -13.263  -8.817  0.00  0.00    +0.000 OA
ATOM     27  H   UNL     1     -16.561 -12.329  -8.544  0.00  0.00    +0.000 HD
ENDBRANCH  25  26
ENDBRANCH   5  20
TORSDOF 4
ENDMDL
