MODEL 1
REMARK VINA RESULT:      -7.4      0.000      0.000
REMARK  Name = Staurosporine.pdbqt.pdb
REMARK  2 active torsions:
REMARK  status: ('A' for Active; 'I' for Inactive)
REMARK    1  A    between atoms: C_3  and  O_11
REMARK    2  A    between atoms: C_5  and  N_8
REMARK                            x       y       z     vdW  Elec       q    Type
REMARK                         _______ _______ _______ _____ _____    ______ ____
ROOT
ATOM      1  O   UNL     1      -1.984 -15.653  -3.438  0.00  0.00    +0.000 OA
ATOM      2  C   UNL     1      -0.674 -15.032  -3.328  0.00  0.00    +0.000 C 
ATOM      3  C   UNL     1      -0.653 -13.684  -2.581  0.00  0.00    +0.000 C 
ATOM      4  C   UNL     1      -2.664 -15.714  -2.232  0.00  0.00    +0.000 C 
ATOM      5  C   UNL     1      -1.735 -13.386  -1.645  0.00  0.00    +0.000 C 
ATOM      6  C   UNL     1      -2.655 -14.450  -1.606  0.00  0.00    +0.000 C 
ATOM      7  C   UNL     1      -0.294 -14.733  -4.818  0.00  0.00    +0.000 C 
ATOM      8  N   UNL     1       0.237 -16.029  -2.721  0.00  0.00    +0.000 N 
ATOM      9  C   UNL     1      -0.007 -17.113  -1.915  0.00  0.00    +0.000 A 
ATOM     10  C   UNL     1      -1.222 -17.496  -1.338  0.00  0.00    +0.000 A 
ATOM     11  C   UNL     1       1.068 -17.928  -1.536  0.00  0.00    +0.000 A 
ATOM     12  N   UNL     1      -2.396 -16.815  -1.446  0.00  0.00    +0.000 N 
ATOM     13  C   UNL     1      -1.147 -18.590  -0.464  0.00  0.00    +0.000 A 
ATOM     14  C   UNL     1      -3.165 -17.482  -0.472  0.00  0.00    +0.000 A 
ATOM     15  C   UNL     1      -2.439 -18.588   0.106  0.00  0.00    +0.000 A 
ATOM     16  C   UNL     1      -4.483 -17.204  -0.075  0.00  0.00    +0.000 A 
ATOM     17  C   UNL     1      -3.089 -19.363   1.087  0.00  0.00    +0.000 A 
ATOM     18  C   UNL     1      -4.397 -19.071   1.468  0.00  0.00    +0.000 A 
ATOM     19  C   UNL     1      -5.079 -18.007   0.896  0.00  0.00    +0.000 A 
ATOM     20  C   UNL     1      -0.075 -19.422  -0.085  0.00  0.00    +0.000 A 
ATOM     21  C   UNL     1       1.153 -19.048  -0.697  0.00  0.00    +0.000 A 
ATOM     22  C   UNL     1       0.123 -20.546   0.801  0.00  0.00    +0.000 C 
ATOM     23  C   UNL     1       2.191 -19.978  -0.178  0.00  0.00    +0.000 C 
ATOM     24  N   UNL     1       1.498 -20.780   0.660  0.00  0.00    +0.000 N 
ATOM     25  H   UNL     1       1.936 -21.532   1.172  0.00  0.00    +0.000 HD
ATOM     26  O   UNL     1      -0.616 -21.197   1.524  0.00  0.00    +0.000 OA
ATOM     27  C   UNL     1       2.160 -17.289  -2.145  0.00  0.00    +0.000 A 
ATOM     28  C   UNL     1       1.650 -16.134  -2.844  0.00  0.00    +0.000 A 
ATOM     29  C   UNL     1       3.548 -17.535  -2.173  0.00  0.00    +0.000 A 
ATOM     30  C   UNL     1       2.539 -15.292  -3.535  0.00  0.00    +0.000 A 
ATOM     31  C   UNL     1       3.904 -15.578  -3.537  0.00  0.00    +0.000 A 
ATOM     32  C   UNL     1       4.404 -16.683  -2.869  0.00  0.00    +0.000 A 
ENDROOT
BRANCH   5  33
ATOM     33  N   UNL     1      -1.731 -12.285  -0.746  0.00  0.00    +0.000 N 
ATOM     34  C   UNL     1      -3.026 -11.925  -0.212  0.00  0.00    +0.000 C 
ATOM     35  H   UNL     1      -1.131 -11.505  -1.022  0.00  0.00    +0.000 HD
ENDBRANCH   5  33
BRANCH   3  36
ATOM     36  O   UNL     1       0.588 -13.107  -2.422  0.00  0.00    +0.000 OA
ATOM     37  C   UNL     1       0.724 -11.940  -3.188  0.00  0.00    +0.000 C 
ENDBRANCH   3  36
TORSDOF 2
ENDMDL
MODEL 2
REMARK VINA RESULT:      -7.0     17.946     21.511
REMARK  Name = Staurosporine.pdbqt.pdb
REMARK  2 active torsions:
REMARK  status: ('A' for Active; 'I' for Inactive)
REMARK    1  A    between atoms: C_3  and  O_11
REMARK    2  A    between atoms: C_5  and  N_8
REMARK                            x       y       z     vdW  Elec       q    Type
REMARK                         _______ _______ _______ _____ _____    ______ ____
ROOT
ATOM      1  O   UNL     1      -4.068 -38.658  -7.086  0.00  0.00    +0.000 OA
ATOM      2  C   UNL     1      -4.513 -38.081  -5.828  0.00  0.00    +0.000 C 
ATOM      3  C   UNL     1      -3.656 -38.456  -4.602  0.00  0.00    +0.000 C 
ATOM      4  C   UNL     1      -2.714 -38.482  -7.322  0.00  0.00    +0.000 C 
ATOM      5  C   UNL     1      -2.275 -38.881  -4.817  0.00  0.00    +0.000 C 
ATOM      6  C   UNL     1      -1.969 -38.877  -6.191  0.00  0.00    +0.000 C 
ATOM      7  C   UNL     1      -5.922 -38.731  -5.615  0.00  0.00    +0.000 C 
ATOM      8  N   UNL     1      -4.609 -36.616  -6.024  0.00  0.00    +0.000 N 
ATOM      9  C   UNL     1      -3.984 -35.773  -6.908  0.00  0.00    +0.000 A 
ATOM     10  C   UNL     1      -2.959 -36.082  -7.808  0.00  0.00    +0.000 A 
ATOM     11  C   UNL     1      -4.324 -34.414  -6.902  0.00  0.00    +0.000 A 
ATOM     12  N   UNL     1      -2.360 -37.299  -7.935  0.00  0.00    +0.000 N 
ATOM     13  C   UNL     1      -2.434 -34.988  -8.510  0.00  0.00    +0.000 A 
ATOM     14  C   UNL     1      -1.263 -36.955  -8.750  0.00  0.00    +0.000 A 
ATOM     15  C   UNL     1      -1.311 -35.567  -9.142  0.00  0.00    +0.000 A 
ATOM     16  C   UNL     1      -0.230 -37.793  -9.201  0.00  0.00    +0.000 A 
ATOM     17  C   UNL     1      -0.285 -35.081  -9.977  0.00  0.00    +0.000 A 
ATOM     18  C   UNL     1       0.732 -35.928 -10.414  0.00  0.00    +0.000 A 
ATOM     19  C   UNL     1       0.757 -37.260 -10.030  0.00  0.00    +0.000 A 
ATOM     20  C   UNL     1      -2.776 -33.621  -8.519  0.00  0.00    +0.000 A 
ATOM     21  C   UNL     1      -3.839 -33.316  -7.624  0.00  0.00    +0.000 A 
ATOM     22  C   UNL     1      -2.305 -32.422  -9.173  0.00  0.00    +0.000 C 
ATOM     23  C   UNL     1      -4.061 -31.848  -7.709  0.00  0.00    +0.000 C 
ATOM     24  N   UNL     1      -3.140 -31.446  -8.612  0.00  0.00    +0.000 N 
ATOM     25  H   UNL     1      -3.044 -30.481  -8.892  0.00  0.00    +0.000 HD
ATOM     26  O   UNL     1      -1.435 -32.192  -9.999  0.00  0.00    +0.000 OA
ATOM     27  C   UNL     1      -5.273 -34.347  -5.868  0.00  0.00    +0.000 A 
ATOM     28  C   UNL     1      -5.425 -35.679  -5.333  0.00  0.00    +0.000 A 
ATOM     29  C   UNL     1      -6.020 -33.300  -5.291  0.00  0.00    +0.000 A 
ATOM     30  C   UNL     1      -6.309 -35.901  -4.263  0.00  0.00    +0.000 A 
ATOM     31  C   UNL     1      -7.030 -34.833  -3.727  0.00  0.00    +0.000 A 
ATOM     32  C   UNL     1      -6.890 -33.551  -4.232  0.00  0.00    +0.000 A 
ENDROOT
BRANCH   5  33
ATOM     33  N   UNL     1      -1.322 -39.053  -3.776  0.00  0.00    +0.000 N 
ATOM     34  C   UNL     1      -0.018 -39.505  -4.207  0.00  0.00    +0.000 C 
ATOM     35  H   UNL     1      -1.686 -39.490  -2.926  0.00  0.00    +0.000 HD
ENDBRANCH   5  33
BRANCH   3  36
ATOM     36  O   UNL     1      -4.032 -37.876  -3.410  0.00  0.00    +0.000 OA
ATOM     37  C   UNL     1      -4.467 -38.830  -2.478  0.00  0.00    +0.000 C 
ENDBRANCH   3  36
TORSDOF 2
ENDMDL
MODEL 3
REMARK VINA RESULT:      -6.8     18.661     21.892
REMARK  Name = Staurosporine.pdbqt.pdb
REMARK  2 active torsions:
REMARK  status: ('A' for Active; 'I' for Inactive)
REMARK    1  A    between atoms: C_3  and  O_11
REMARK    2  A    between atoms: C_5  and  N_8
REMARK                            x       y       z     vdW  Elec       q    Type
REMARK                         _______ _______ _______ _____ _____    ______ ____
ROOT
ATOM      1  O   UNL     1      -2.401 -38.541  -9.131  0.00  0.00    +0.000 OA
ATOM      2  C   UNL     1      -3.159 -37.637  -8.281  0.00  0.00    +0.000 C 
ATOM      3  C   UNL     1      -2.991 -37.875  -6.767  0.00  0.00    +0.000 C 
ATOM      4  C   UNL     1      -1.069 -38.650  -8.765  0.00  0.00    +0.000 C 
ATOM      5  C   UNL     1      -1.791 -38.562  -6.296  0.00  0.00    +0.000 C 
ATOM      6  C   UNL     1      -0.966 -38.908  -7.382  0.00  0.00    +0.000 C 
ATOM      7  C   UNL     1      -4.646 -37.980  -8.633  0.00  0.00    +0.000 C 
ATOM      8  N   UNL     1      -2.806 -36.256  -8.680  0.00  0.00    +0.000 N 
ATOM      9  C   UNL     1      -1.691 -35.742  -9.294  0.00  0.00    +0.000 A 
ATOM     10  C   UNL     1      -0.500 -36.407  -9.603  0.00  0.00    +0.000 A 
ATOM     11  C   UNL     1      -1.661 -34.377  -9.608  0.00  0.00    +0.000 A 
ATOM     12  N   UNL     1      -0.219 -37.705  -9.300  0.00  0.00    +0.000 N 
ATOM     13  C   UNL     1       0.515 -35.596 -10.131  0.00  0.00    +0.000 A 
ATOM     14  C   UNL     1       1.161 -37.736  -9.583  0.00  0.00    +0.000 A 
ATOM     15  C   UNL     1       1.617 -36.479 -10.126  0.00  0.00    +0.000 A 
ATOM     16  C   UNL     1       2.049 -38.812  -9.424  0.00  0.00    +0.000 A 
ATOM     17  C   UNL     1       2.977 -36.365 -10.475  0.00  0.00    +0.000 A 
ATOM     18  C   UNL     1       3.843 -37.445 -10.309  0.00  0.00    +0.000 A 
ATOM     19  C   UNL     1       3.384 -38.646  -9.790  0.00  0.00    +0.000 A 
ATOM     20  C   UNL     1       0.551 -34.226 -10.460  0.00  0.00    +0.000 A 
ATOM     21  C   UNL     1      -0.672 -33.560 -10.172  0.00  0.00    +0.000 A 
ATOM     22  C   UNL     1       1.524 -33.295 -10.982  0.00  0.00    +0.000 C 
ATOM     23  C   UNL     1      -0.474 -32.129 -10.528  0.00  0.00    +0.000 C 
ATOM     24  N   UNL     1       0.801 -32.094 -10.974  0.00  0.00    +0.000 N 
ATOM     25  H   UNL     1       1.235 -31.243 -11.300  0.00  0.00    +0.000 HD
ATOM     26  O   UNL     1       2.681 -33.399 -11.361  0.00  0.00    +0.000 OA
ATOM     27  C   UNL     1      -2.898 -33.928  -9.116  0.00  0.00    +0.000 A 
ATOM     28  C   UNL     1      -3.574 -35.067  -8.543  0.00  0.00    +0.000 A 
ATOM     29  C   UNL     1      -3.533 -32.671  -9.063  0.00  0.00    +0.000 A 
ATOM     30  C   UNL     1      -4.840 -34.899  -7.955  0.00  0.00    +0.000 A 
ATOM     31  C   UNL     1      -5.430 -33.635  -7.929  0.00  0.00    +0.000 A 
ATOM     32  C   UNL     1      -4.789 -32.536  -8.476  0.00  0.00    +0.000 A 
ENDROOT
BRANCH   5  33
ATOM     33  N   UNL     1      -1.413 -38.660  -4.929  0.00  0.00    +0.000 N 
ATOM     34  C   UNL     1      -1.665 -39.945  -4.314  0.00  0.00    +0.000 C 
ATOM     35  H   UNL     1      -1.640 -37.842  -4.359  0.00  0.00    +0.000 HD
ENDBRANCH   5  33
BRANCH   3  36
ATOM     36  O   UNL     1      -3.661 -36.994  -5.946  0.00  0.00    +0.000 OA
ATOM     37  C   UNL     1      -4.648 -37.638  -5.184  0.00  0.00    +0.000 C 
ENDBRANCH   3  36
TORSDOF 2
ENDMDL
MODEL 4
REMARK VINA RESULT:      -6.7     14.837     16.856
REMARK  Name = Staurosporine.pdbqt.pdb
REMARK  2 active torsions:
REMARK  status: ('A' for Active; 'I' for Inactive)
REMARK    1  A    between atoms: C_3  and  O_11
REMARK    2  A    between atoms: C_5  and  N_8
REMARK                            x       y       z     vdW  Elec       q    Type
REMARK                         _______ _______ _______ _____ _____    ______ ____
ROOT
ATOM      1  O   UNL     1      -6.467 -18.226 -15.744  0.00  0.00    +0.000 OA
ATOM      2  C   UNL     1      -5.271 -17.622 -16.307  0.00  0.00    +0.000 C 
ATOM      3  C   UNL     1      -5.136 -17.750 -17.837  0.00  0.00    +0.000 C 
ATOM      4  C   UNL     1      -7.629 -17.858 -16.403  0.00  0.00    +0.000 C 
ATOM      5  C   UNL     1      -6.344 -17.967 -18.630  0.00  0.00    +0.000 C 
ATOM      6  C   UNL     1      -7.474 -18.032 -17.794  0.00  0.00    +0.000 C 
ATOM      7  C   UNL     1      -4.113 -18.467 -15.675  0.00  0.00    +0.000 C 
ATOM      8  N   UNL     1      -5.232 -16.214 -15.852  0.00  0.00    +0.000 N 
ATOM      9  C   UNL     1      -6.227 -15.360 -15.447  0.00  0.00    +0.000 A 
ATOM     10  C   UNL     1      -7.608 -15.578 -15.478  0.00  0.00    +0.000 A 
ATOM     11  C   UNL     1      -5.879 -14.077 -15.005  0.00  0.00    +0.000 A 
ATOM     12  N   UNL     1      -8.221 -16.690 -15.970  0.00  0.00    +0.000 N 
ATOM     13  C   UNL     1      -8.393 -14.478 -15.103  0.00  0.00    +0.000 A 
ATOM     14  C   UNL     1      -9.558 -16.247 -16.002  0.00  0.00    +0.000 A 
ATOM     15  C   UNL     1      -9.689 -14.923 -15.443  0.00  0.00    +0.000 A 
ATOM     16  C   UNL     1     -10.686 -16.946 -16.464  0.00  0.00    +0.000 A 
ATOM     17  C   UNL     1     -10.977 -14.353 -15.391  0.00  0.00    +0.000 A 
ATOM     18  C   UNL     1     -12.084 -15.062 -15.855  0.00  0.00    +0.000 A 
ATOM     19  C   UNL     1     -11.937 -16.335 -16.384  0.00  0.00    +0.000 A 
ATOM     20  C   UNL     1      -8.053 -13.189 -14.647  0.00  0.00    +0.000 A 
ATOM     21  C   UNL     1      -6.647 -12.981 -14.588  0.00  0.00    +0.000 A 
ATOM     22  C   UNL     1      -8.758 -11.990 -14.256  0.00  0.00    +0.000 C 
ATOM     23  C   UNL     1      -6.440 -11.579 -14.135  0.00  0.00    +0.000 C 
ATOM     24  N   UNL     1      -7.699 -11.115 -13.979  0.00  0.00    +0.000 N 
ATOM     25  H   UNL     1      -7.892 -10.174 -13.668  0.00  0.00    +0.000 HD
ATOM     26  O   UNL     1      -9.940 -11.696 -14.153  0.00  0.00    +0.000 OA
ATOM     27  C   UNL     1      -4.483 -14.073 -15.163  0.00  0.00    +0.000 A 
ATOM     28  C   UNL     1      -4.104 -15.362 -15.691  0.00  0.00    +0.000 A 
ATOM     29  C   UNL     1      -3.475 -13.113 -14.942  0.00  0.00    +0.000 A 
ATOM     30  C   UNL     1      -2.752 -15.630 -15.966  0.00  0.00    +0.000 A 
ATOM     31  C   UNL     1      -1.789 -14.648 -15.728  0.00  0.00    +0.000 A 
ATOM     32  C   UNL     1      -2.142 -13.408 -15.223  0.00  0.00    +0.000 A 
ENDROOT
BRANCH   5  33
ATOM     33  N   UNL     1      -6.390 -17.897 -20.049  0.00  0.00    +0.000 N 
ATOM     34  C   UNL     1      -6.397 -19.175 -20.727  0.00  0.00    +0.000 C 
ATOM     35  H   UNL     1      -5.795 -17.176 -20.465  0.00  0.00    +0.000 HD
ENDBRANCH   5  33
BRANCH   3  36
ATOM     36  O   UNL     1      -4.034 -17.138 -18.394  0.00  0.00    +0.000 OA
ATOM     37  C   UNL     1      -3.157 -18.066 -18.974  0.00  0.00    +0.000 C 
ENDBRANCH   3  36
TORSDOF 2
ENDMDL
MODEL 5
REMARK VINA RESULT:      -6.6     14.226     16.352
REMARK  Name = Staurosporine.pdbqt.pdb
REMARK  2 active torsions:
REMARK  status: ('A' for Active; 'I' for Inactive)
REMARK    1  A    between atoms: C_3  and  O_11
REMARK    2  A    between atoms: C_5  and  N_8
REMARK                            x       y       z     vdW  Elec       q    Type
REMARK                         _______ _______ _______ _____ _____    ______ ____
ROOT
ATOM      1  O   UNL     1      -5.110 -19.516 -15.892  0.00  0.00    +0.000 OA
ATOM      2  C   UNL     1      -3.838 -19.120 -16.473  0.00  0.00    +0.000 C 
ATOM      3  C   UNL     1      -3.753 -19.258 -18.006  0.00  0.00    +0.000 C 
ATOM      4  C   UNL     1      -6.203 -18.951 -16.528  0.00  0.00    +0.000 C 
ATOM      5  C   UNL     1      -4.993 -19.260 -18.778  0.00  0.00    +0.000 C 
ATOM      6  C   UNL     1      -6.103 -19.137 -17.923  0.00  0.00    +0.000 C 
ATOM      7  C   UNL     1      -2.831 -20.155 -15.866  0.00  0.00    +0.000 C 
ATOM      8  N   UNL     1      -3.552 -17.743 -16.011  0.00  0.00    +0.000 N 
ATOM      9  C   UNL     1      -4.380 -16.735 -15.585  0.00  0.00    +0.000 A 
ATOM     10  C   UNL     1      -5.779 -16.714 -15.593  0.00  0.00    +0.000 A 
ATOM     11  C   UNL     1      -3.811 -15.534 -15.143  0.00  0.00    +0.000 A 
ATOM     12  N   UNL     1      -6.580 -17.702 -16.079  0.00  0.00    +0.000 N 
ATOM     13  C   UNL     1      -6.358 -15.500 -15.198  0.00  0.00    +0.000 A 
ATOM     14  C   UNL     1      -7.823 -17.038 -16.086  0.00  0.00    +0.000 A 
ATOM     15  C   UNL     1      -7.717 -15.715 -15.518  0.00  0.00    +0.000 A 
ATOM     16  C   UNL     1      -9.061 -17.530 -16.531  0.00  0.00    +0.000 A 
ATOM     17  C   UNL     1      -8.888 -14.935 -15.440  0.00  0.00    +0.000 A 
ATOM     18  C   UNL     1     -10.106 -15.441 -15.888  0.00  0.00    +0.000 A 
ATOM     19  C   UNL     1     -10.188 -16.716 -16.426  0.00  0.00    +0.000 A 
ATOM     20  C   UNL     1      -5.796 -14.291 -14.742  0.00  0.00    +0.000 A 
ATOM     21  C   UNL     1      -4.374 -14.326 -14.707  0.00  0.00    +0.000 A 
ATOM     22  C   UNL     1      -6.280 -12.993 -14.333  0.00  0.00    +0.000 C 
ATOM     23  C   UNL     1      -3.924 -12.984 -14.251  0.00  0.00    +0.000 C 
ATOM     24  N   UNL     1      -5.082 -12.314 -14.070  0.00  0.00    +0.000 N 
ATOM     25  H   UNL     1      -5.107 -11.356 -13.751  0.00  0.00    +0.000 HD
ATOM     26  O   UNL     1      -7.392 -12.502 -14.208  0.00  0.00    +0.000 OA
ATOM     27  C   UNL     1      -2.438 -15.767 -15.325  0.00  0.00    +0.000 A 
ATOM     28  C   UNL     1      -2.293 -17.097 -15.866  0.00  0.00    +0.000 A 
ATOM     29  C   UNL     1      -1.277 -14.994 -15.118  0.00  0.00    +0.000 A 
ATOM     30  C   UNL     1      -1.011 -17.589 -16.166  0.00  0.00    +0.000 A 
ATOM     31  C   UNL     1       0.108 -16.788 -15.941  0.00  0.00    +0.000 A 
ATOM     32  C   UNL     1      -0.020 -15.510 -15.423  0.00  0.00    +0.000 A 
ENDROOT
BRANCH   5  33
ATOM     33  N   UNL     1      -5.049 -19.171 -20.196  0.00  0.00    +0.000 N 
ATOM     34  C   UNL     1      -5.210 -20.434 -20.884  0.00  0.00    +0.000 C 
ATOM     35  H   UNL     1      -4.382 -18.519 -20.614  0.00  0.00    +0.000 HD
ENDBRANCH   5  33
BRANCH   3  36
ATOM     36  O   UNL     1      -2.572 -18.837 -18.579  0.00  0.00    +0.000 OA
ATOM     37  C   UNL     1      -1.868 -19.900 -19.166  0.00  0.00    +0.000 C 
ENDBRANCH   3  36
TORSDOF 2
ENDMDL
MODEL 6
REMARK VINA RESULT:      -6.5     13.974     15.931
REMARK  Name = Staurosporine.pdbqt.pdb
REMARK  2 active torsions:
REMARK  status: ('A' for Active; 'I' for Inactive)
REMARK    1  A    between atoms: C_3  and  O_11
REMARK    2  A    between atoms: C_5  and  N_8
REMARK                            x       y       z     vdW  Elec       q    Type
REMARK                         _______ _______ _______ _____ _____    ______ ____
ROOT
ATOM      1  O   UNL     1      -4.690 -13.712 -13.988  0.00  0.00    +0.000 OA
ATOM      2  C   UNL     1      -5.812 -13.665 -14.912  0.00  0.00    +0.000 C 
ATOM      3  C   UNL     1      -5.637 -12.698 -16.100  0.00  0.00    +0.000 C 
ATOM      4  C   UNL     1      -3.468 -13.876 -14.619  0.00  0.00    +0.000 C 
ATOM      5  C   UNL     1      -4.283 -12.321 -16.501  0.00  0.00    +0.000 C 
ATOM      6  C   UNL     1      -3.334 -12.944 -15.670  0.00  0.00    +0.000 C 
ATOM      7  C   UNL     1      -6.977 -13.099 -14.031  0.00  0.00    +0.000 C 
ATOM      8  N   UNL     1      -6.082 -15.054 -15.349  0.00  0.00    +0.000 N 
ATOM      9  C   UNL     1      -5.276 -16.163 -15.406  0.00  0.00    +0.000 A 
ATOM     10  C   UNL     1      -3.900 -16.236 -15.169  0.00  0.00    +0.000 A 
ATOM     11  C   UNL     1      -5.833 -17.383 -15.813  0.00  0.00    +0.000 A 
ATOM     12  N   UNL     1      -3.093 -15.179 -14.874  0.00  0.00    +0.000 N 
ATOM     13  C   UNL     1      -3.319 -17.489 -15.412  0.00  0.00    +0.000 A 
ATOM     14  C   UNL     1      -1.827 -15.781 -15.019  0.00  0.00    +0.000 A 
ATOM     15  C   UNL     1      -1.943 -17.191 -15.306  0.00  0.00    +0.000 A 
ATOM     16  C   UNL     1      -0.566 -15.177 -14.885  0.00  0.00    +0.000 A 
ATOM     17  C   UNL     1      -0.754 -17.932 -15.460  0.00  0.00    +0.000 A 
ATOM     18  C   UNL     1       0.488 -17.315 -15.323  0.00  0.00    +0.000 A 
ATOM     19  C   UNL     1       0.577 -15.960 -15.042  0.00  0.00    +0.000 A 
ATOM     20  C   UNL     1      -3.871 -18.722 -15.811  0.00  0.00    +0.000 A 
ATOM     21  C   UNL     1      -5.276 -18.652 -16.022  0.00  0.00    +0.000 A 
ATOM     22  C   UNL     1      -3.381 -20.049 -16.105  0.00  0.00    +0.000 C 
ATOM     23  C   UNL     1      -5.709 -20.002 -16.474  0.00  0.00    +0.000 C 
ATOM     24  N   UNL     1      -4.558 -20.709 -16.485  0.00  0.00    +0.000 N 
ATOM     25  H   UNL     1      -4.526 -21.683 -16.750  0.00  0.00    +0.000 HD
ATOM     26  O   UNL     1      -2.277 -20.574 -16.072  0.00  0.00    +0.000 OA
ATOM     27  C   UNL     1      -7.165 -17.030 -16.084  0.00  0.00    +0.000 A 
ATOM     28  C   UNL     1      -7.301 -15.618 -15.817  0.00  0.00    +0.000 A 
ATOM     29  C   UNL     1      -8.290 -17.738 -16.553  0.00  0.00    +0.000 A 
ATOM     30  C   UNL     1      -8.541 -14.988 -16.023  0.00  0.00    +0.000 A 
ATOM     31  C   UNL     1      -9.627 -15.732 -16.486  0.00  0.00    +0.000 A 
ATOM     32  C   UNL     1      -9.507 -17.086 -16.746  0.00  0.00    +0.000 A 
ENDROOT
BRANCH   5  33
ATOM     33  N   UNL     1      -3.974 -11.612 -17.693  0.00  0.00    +0.000 N 
ATOM     34  C   UNL     1      -3.813 -10.183 -17.533  0.00  0.00    +0.000 C 
ATOM     35  H   UNL     1      -4.495 -11.911 -18.521  0.00  0.00    +0.000 HD
ENDBRANCH   5  33
BRANCH   3  36
ATOM     36  O   UNL     1      -6.668 -12.680 -17.014  0.00  0.00    +0.000 OA
ATOM     37  C   UNL     1      -7.315 -11.436 -17.047  0.00  0.00    +0.000 C 
ENDBRANCH   3  36
TORSDOF 2
ENDMDL
MODEL 7
REMARK VINA RESULT:      -6.4     12.519     15.848
REMARK  Name = Staurosporine.pdbqt.pdb
REMARK  2 active torsions:
REMARK  status: ('A' for Active; 'I' for Inactive)
REMARK    1  A    between atoms: C_3  and  O_11
REMARK    2  A    between atoms: C_5  and  N_8
REMARK                            x       y       z     vdW  Elec       q    Type
REMARK                         _______ _______ _______ _____ _____    ______ ____
ROOT
ATOM      1  O   UNL     1      -1.857 -15.471 -16.922  0.00  0.00    +0.000 OA
ATOM      2  C   UNL     1      -1.868 -16.918 -16.779  0.00  0.00    +0.000 C 
ATOM      3  C   UNL     1      -1.057 -17.460 -15.584  0.00  0.00    +0.000 C 
ATOM      4  C   UNL     1      -2.151 -14.802 -15.745  0.00  0.00    +0.000 C 
ATOM      5  C   UNL     1      -0.793 -16.569 -14.457  0.00  0.00    +0.000 C 
ATOM      6  C   UNL     1      -1.357 -15.301 -14.691  0.00  0.00    +0.000 C 
ATOM      7  C   UNL     1      -1.148 -17.411 -18.079  0.00  0.00    +0.000 C 
ATOM      8  N   UNL     1      -3.285 -17.347 -16.742  0.00  0.00    +0.000 N 
ATOM      9  C   UNL     1      -4.429 -16.678 -16.385  0.00  0.00    +0.000 A 
ATOM     10  C   UNL     1      -4.536 -15.401 -15.825  0.00  0.00    +0.000 A 
ATOM     11  C   UNL     1      -5.662 -17.333 -16.510  0.00  0.00    +0.000 A 
ATOM     12  N   UNL     1      -3.490 -14.597 -15.489  0.00  0.00    +0.000 N 
ATOM     13  C   UNL     1      -5.835 -15.019 -15.458  0.00  0.00    +0.000 A 
ATOM     14  C   UNL     1      -4.163 -13.609 -14.742  0.00  0.00    +0.000 A 
ATOM     15  C   UNL     1      -5.590 -13.825 -14.745  0.00  0.00    +0.000 A 
ATOM     16  C   UNL     1      -3.606 -12.503 -14.078  0.00  0.00    +0.000 A 
ATOM     17  C   UNL     1      -6.398 -12.903 -14.051  0.00  0.00    +0.000 A 
ATOM     18  C   UNL     1      -5.827 -11.812 -13.398  0.00  0.00    +0.000 A 
ATOM     19  C   UNL     1      -4.454 -11.619 -13.411  0.00  0.00    +0.000 A 
ATOM     20  C   UNL     1      -7.080 -15.665 -15.589  0.00  0.00    +0.000 A 
ATOM     21  C   UNL     1      -6.971 -16.951 -16.186  0.00  0.00    +0.000 A 
ATOM     22  C   UNL     1      -8.453 -15.385 -15.239  0.00  0.00    +0.000 C 
ATOM     23  C   UNL     1      -8.343 -17.525 -16.222  0.00  0.00    +0.000 C 
ATOM     24  N   UNL     1      -9.098 -16.555 -15.662  0.00  0.00    +0.000 N 
ATOM     25  H   UNL     1     -10.097 -16.649 -15.547  0.00  0.00    +0.000 HD
ATOM     26  O   UNL     1      -9.020 -14.435 -14.720  0.00  0.00    +0.000 OA
ATOM     27  C   UNL     1      -5.282 -18.600 -16.983  0.00  0.00    +0.000 A 
ATOM     28  C   UNL     1      -3.844 -18.604 -17.103  0.00  0.00    +0.000 A 
ATOM     29  C   UNL     1      -5.988 -19.776 -17.309  0.00  0.00    +0.000 A 
ATOM     30  C   UNL     1      -3.186 -19.766 -17.542  0.00  0.00    +0.000 A 
ATOM     31  C   UNL     1      -3.928 -20.905 -17.856  0.00  0.00    +0.000 A 
ATOM     32  C   UNL     1      -5.308 -20.912 -17.744  0.00  0.00    +0.000 A 
ENDROOT
BRANCH   5  33
ATOM     33  N   UNL     1      -0.245 -16.995 -13.216  0.00  0.00    +0.000 N 
ATOM     34  C   UNL     1       1.031 -16.405 -12.875  0.00  0.00    +0.000 C 
ATOM     35  H   UNL     1      -0.339 -17.994 -13.023  0.00  0.00    +0.000 HD
ENDBRANCH   5  33
BRANCH   3  36
ATOM     36  O   UNL     1      -1.100 -18.825 -15.403  0.00  0.00    +0.000 OA
ATOM     37  C   UNL     1       0.174 -19.405 -15.495  0.00  0.00    +0.000 C 
ENDBRANCH   3  36
TORSDOF 2
ENDMDL
MODEL 8
REMARK VINA RESULT:      -6.1     17.648     20.290
REMARK  Name = Staurosporine.pdbqt.pdb
REMARK  2 active torsions:
REMARK  status: ('A' for Active; 'I' for Inactive)
REMARK    1  A    between atoms: C_3  and  O_11
REMARK    2  A    between atoms: C_5  and  N_8
REMARK                            x       y       z     vdW  Elec       q    Type
REMARK                         _______ _______ _______ _____ _____    ______ ____
ROOT
ATOM      1  O   UNL     1      -9.038 -35.594   3.999  0.00  0.00    +0.000 OA
ATOM      2  C   UNL     1      -9.166 -34.152   3.865  0.00  0.00    +0.000 C 
ATOM      3  C   UNL     1      -8.335 -33.329   4.869  0.00  0.00    +0.000 C 
ATOM      4  C   UNL     1      -7.723 -36.024   4.064  0.00  0.00    +0.000 C 
ATOM      5  C   UNL     1      -7.165 -33.952   5.484  0.00  0.00    +0.000 C 
ATOM      6  C   UNL     1      -7.013 -35.272   5.023  0.00  0.00    +0.000 C 
ATOM      7  C   UNL     1     -10.674 -33.894   4.202  0.00  0.00    +0.000 C 
ATOM      8  N   UNL     1      -8.854 -33.812   2.458  0.00  0.00    +0.000 N 
ATOM      9  C   UNL     1      -8.105 -34.460   1.509  0.00  0.00    +0.000 A 
ATOM     10  C   UNL     1      -7.310 -35.599   1.675  0.00  0.00    +0.000 A 
ATOM     11  C   UNL     1      -8.035 -33.921   0.217  0.00  0.00    +0.000 A 
ATOM     12  N   UNL     1      -7.105 -36.253   2.852  0.00  0.00    +0.000 N 
ATOM     13  C   UNL     1      -6.565 -35.975   0.548  0.00  0.00    +0.000 A 
ATOM     14  C   UNL     1      -6.045 -37.105   2.485  0.00  0.00    +0.000 A 
ATOM     15  C   UNL     1      -5.729 -36.981   1.082  0.00  0.00    +0.000 A 
ATOM     16  C   UNL     1      -5.350 -38.015   3.298  0.00  0.00    +0.000 A 
ATOM     17  C   UNL     1      -4.697 -37.787   0.564  0.00  0.00    +0.000 A 
ATOM     18  C   UNL     1      -4.018 -38.684   1.387  0.00  0.00    +0.000 A 
ATOM     19  C   UNL     1      -4.340 -38.793   2.731  0.00  0.00    +0.000 A 
ATOM     20  C   UNL     1      -6.497 -35.447  -0.756  0.00  0.00    +0.000 A 
ATOM     21  C   UNL     1      -7.329 -34.306  -0.930  0.00  0.00    +0.000 A 
ATOM     22  C   UNL     1      -5.768 -35.731  -1.970  0.00  0.00    +0.000 C 
ATOM     23  C   UNL     1      -7.124 -33.836  -2.326  0.00  0.00    +0.000 C 
ATOM     24  N   UNL     1      -6.223 -34.713  -2.820  0.00  0.00    +0.000 N 
ATOM     25  H   UNL     1      -5.881 -34.658  -3.768  0.00  0.00    +0.000 HD
ATOM     26  O   UNL     1      -4.957 -36.586  -2.293  0.00  0.00    +0.000 OA
ATOM     27  C   UNL     1      -8.813 -32.757   0.336  0.00  0.00    +0.000 A 
ATOM     28  C   UNL     1      -9.289 -32.692   1.697  0.00  0.00    +0.000 A 
ATOM     29  C   UNL     1      -9.163 -31.718  -0.551  0.00  0.00    +0.000 A 
ATOM     30  C   UNL     1     -10.086 -31.607   2.103  0.00  0.00    +0.000 A 
ATOM     31  C   UNL     1     -10.408 -30.604   1.188  0.00  0.00    +0.000 A 
ATOM     32  C   UNL     1      -9.956 -30.657  -0.120  0.00  0.00    +0.000 A 
ENDROOT
BRANCH   5  33
ATOM     33  N   UNL     1      -6.202 -33.248   6.258  0.00  0.00    +0.000 N 
ATOM     34  C   UNL     1      -5.115 -34.055   6.766  0.00  0.00    +0.000 C 
ATOM     35  H   UNL     1      -6.590 -32.563   6.911  0.00  0.00    +0.000 HD
ENDBRANCH   5  33
BRANCH   3  36
ATOM     36  O   UNL     1      -8.403 -31.961   4.721  0.00  0.00    +0.000 OA
ATOM     37  C   UNL     1      -8.982 -31.343   5.840  0.00  0.00    +0.000 C 
ENDBRANCH   3  36
TORSDOF 2
ENDMDL
MODEL 9
REMARK VINA RESULT:      -6.0     14.114     17.012
REMARK  Name = Staurosporine.pdbqt.pdb
REMARK  2 active torsions:
REMARK  status: ('A' for Active; 'I' for Inactive)
REMARK    1  A    between atoms: C_3  and  O_11
REMARK    2  A    between atoms: C_5  and  N_8
REMARK                            x       y       z     vdW  Elec       q    Type
REMARK                         _______ _______ _______ _____ _____    ______ ____
ROOT
ATOM      1  O   UNL     1      -5.474 -16.982 -15.564  0.00  0.00    +0.000 OA
ATOM      2  C   UNL     1      -4.812 -15.689 -15.505  0.00  0.00    +0.000 C 
ATOM      3  C   UNL     1      -4.114 -15.256 -16.809  0.00  0.00    +0.000 C 
ATOM      4  C   UNL     1      -6.297 -17.127 -16.669  0.00  0.00    +0.000 C 
ATOM      5  C   UNL     1      -4.560 -15.844 -18.070  0.00  0.00    +0.000 C 
ATOM      6  C   UNL     1      -5.603 -16.760 -17.842  0.00  0.00    +0.000 C 
ATOM      7  C   UNL     1      -3.687 -15.912 -14.438  0.00  0.00    +0.000 C 
ATOM      8  N   UNL     1      -5.815 -14.701 -15.045  0.00  0.00    +0.000 N 
ATOM      9  C   UNL     1      -7.185 -14.695 -15.115  0.00  0.00    +0.000 A 
ATOM     10  C   UNL     1      -8.014 -15.606 -15.777  0.00  0.00    +0.000 A 
ATOM     11  C   UNL     1      -7.887 -13.633 -14.530  0.00  0.00    +0.000 A 
ATOM     12  N   UNL     1      -7.587 -16.663 -16.523  0.00  0.00    +0.000 N 
ATOM     13  C   UNL     1      -9.379 -15.284 -15.771  0.00  0.00    +0.000 A 
ATOM     14  C   UNL     1      -8.795 -17.033 -17.149  0.00  0.00    +0.000 A 
ATOM     15  C   UNL     1      -9.900 -16.235 -16.676  0.00  0.00    +0.000 A 
ATOM     16  C   UNL     1      -8.999 -18.054 -18.091  0.00  0.00    +0.000 A 
ATOM     17  C   UNL     1     -11.180 -16.504 -17.200  0.00  0.00    +0.000 A 
ATOM     18  C   UNL     1     -11.362 -17.521 -18.136  0.00  0.00    +0.000 A 
ATOM     19  C   UNL     1     -10.287 -18.280 -18.573  0.00  0.00    +0.000 A 
ATOM     20  C   UNL     1     -10.094 -14.226 -15.177  0.00  0.00    +0.000 A 
ATOM     21  C   UNL     1      -9.252 -13.316 -14.480  0.00  0.00    +0.000 A 
ATOM     22  C   UNL     1     -11.470 -13.787 -15.119  0.00  0.00    +0.000 C 
ATOM     23  C   UNL     1     -10.130 -12.241 -13.946  0.00  0.00    +0.000 C 
ATOM     24  N   UNL     1     -11.360 -12.609 -14.367  0.00  0.00    +0.000 N 
ATOM     25  H   UNL     1     -12.187 -12.069 -14.154  0.00  0.00    +0.000 HD
ATOM     26  O   UNL     1     -12.521 -14.229 -15.557  0.00  0.00    +0.000 OA
ATOM     27  C   UNL     1      -6.851 -12.824 -14.036  0.00  0.00    +0.000 A 
ATOM     28  C   UNL     1      -5.603 -13.469 -14.367  0.00  0.00    +0.000 A 
ATOM     29  C   UNL     1      -6.811 -11.590 -13.355  0.00  0.00    +0.000 A 
ATOM     30  C   UNL     1      -4.389 -12.862 -14.004  0.00  0.00    +0.000 A 
ATOM     31  C   UNL     1      -4.400 -11.641 -13.328  0.00  0.00    +0.000 A 
ATOM     32  C   UNL     1      -5.591 -11.013 -13.007  0.00  0.00    +0.000 A 
ENDROOT
BRANCH   5  33
ATOM     33  N   UNL     1      -4.150 -15.387 -19.352  0.00  0.00    +0.000 N 
ATOM     34  C   UNL     1      -5.056 -14.457 -19.990  0.00  0.00    +0.000 C 
ATOM     35  H   UNL     1      -3.751 -16.106 -19.960  0.00  0.00    +0.000 HD
ENDBRANCH   5  33
BRANCH   3  36
ATOM     36  O   UNL     1      -3.526 -14.010 -16.788  0.00  0.00    +0.000 OA
ATOM     37  C   UNL     1      -2.135 -14.085 -16.957  0.00  0.00    +0.000 C 
ENDBRANCH   3  36
TORSDOF 2
ENDMDL
