REMARK  Name = Staurosporine.pdbqt.pdb
REMARK  2 active torsions:
REMARK  status: ('A' for Active; 'I' for Inactive)
REMARK    1  A    between atoms: C_3  and  O_11
REMARK    2  A    between atoms: C_5  and  N_8
REMARK                            x       y       z     vdW  Elec       q    Type
REMARK                         _______ _______ _______ _____ _____    ______ ____
ROOT
ATOM      1  O   UNL     1       1.067  -1.926   1.596  0.00  0.00    +0.000 OA
ATOM      2  C   UNL     1       2.090  -1.186   0.875  0.00  0.00    +0.000 C 
ATOM      3  C   UNL     1       2.596  -1.864  -0.414  0.00  0.00    +0.000 C 
ATOM      4  C   UNL     1       0.026  -2.352   0.787  0.00  0.00    +0.000 C 
ATOM      5  C   UNL     1       1.736  -2.844  -1.073  0.00  0.00    +0.000 C 
ATOM      6  C   UNL     1       0.535  -3.002  -0.357  0.00  0.00    +0.000 C 
ATOM      7  C   UNL     1       3.291  -1.165   1.880  0.00  0.00    +0.000 C 
ATOM      8  N   UNL     1       1.559   0.174   0.628  0.00  0.00    +0.000 N 
ATOM      9  C   UNL     1       0.274   0.648   0.544  0.00  0.00    +0.000 A 
ATOM     10  C   UNL     1      -0.914  -0.090   0.551  0.00  0.00    +0.000 A 
ATOM     11  C   UNL     1       0.071   2.022   0.358  0.00  0.00    +0.000 A 
ATOM     12  N   UNL     1      -0.999  -1.448   0.601  0.00  0.00    +0.000 N 
ATOM     13  C   UNL     1      -2.081   0.658   0.337  0.00  0.00    +0.000 A 
ATOM     14  C   UNL     1      -2.365  -1.626   0.304  0.00  0.00    +0.000 A 
ATOM     15  C   UNL     1      -3.047  -0.360   0.180  0.00  0.00    +0.000 A 
ATOM     16  C   UNL     1      -3.066  -2.835   0.164  0.00  0.00    +0.000 A 
ATOM     17  C   UNL     1      -4.428  -0.379  -0.099  0.00  0.00    +0.000 A 
ATOM     18  C   UNL     1      -5.106  -1.589  -0.235  0.00  0.00    +0.000 A 
ATOM     19  C   UNL     1      -4.433  -2.795  -0.107  0.00  0.00    +0.000 A 
ATOM     20  C   UNL     1      -2.296   2.039   0.160  0.00  0.00    +0.000 A 
ATOM     21  C   UNL     1      -1.088   2.790   0.183  0.00  0.00    +0.000 A 
ATOM     22  C   UNL     1      -3.426   2.906  -0.082  0.00  0.00    +0.000 C 
ATOM     23  C   UNL     1      -1.462   4.210  -0.055  0.00  0.00    +0.000 C 
ATOM     24  N   UNL     1      -2.805   4.158  -0.191  0.00  0.00    +0.000 N 
ATOM     25  H   UNL     1      -3.362   4.983  -0.361  0.00  0.00    +0.000 HD
ATOM     26  O   UNL     1      -4.630   2.723  -0.184  0.00  0.00    +0.000 OA
ATOM     27  C   UNL     1       1.385   2.512   0.283  0.00  0.00    +0.000 A 
ATOM     28  C   UNL     1       2.276   1.386   0.430  0.00  0.00    +0.000 A 
ATOM     29  C   UNL     1       1.944   3.791   0.082  0.00  0.00    +0.000 A 
ATOM     30  C   UNL     1       3.666   1.588   0.375  0.00  0.00    +0.000 A 
ATOM     31  C   UNL     1       4.172   2.873   0.177  0.00  0.00    +0.000 A 
ATOM     32  C   UNL     1       3.326   3.960   0.034  0.00  0.00    +0.000 A 
ENDROOT
BRANCH   5  33
ATOM     33  N   UNL     1       1.986  -3.384  -2.364  0.00  0.00    +0.000 N 
ATOM     34  C   UNL     1       1.254  -4.592  -2.676  0.00  0.00    +0.000 C 
ATOM     35  H   UNL     1       2.966  -3.370  -2.655  0.00  0.00    +0.000 HD
ENDBRANCH   5  33
BRANCH   3  36
ATOM     36  O   UNL     1       3.528  -1.152  -1.138  0.00  0.00    +0.000 OA
ATOM     37  C   UNL     1       4.517  -1.986  -1.680  0.00  0.00    +0.000 C 
ENDBRANCH   3  36
TORSDOF 2
