MODEL 1
REMARK VINA RESULT:      -5.9      0.000      0.000
REMARK  Name = Testosterone.pdbqt.pdb
REMARK  1 active torsions:
REMARK  status: ('A' for Active; 'I' for Inactive)
REMARK    1  A    between atoms: C_9  and  O_21
REMARK                            x       y       z     vdW  Elec       q    Type
REMARK                         _______ _______ _______ _____ _____    ______ ____
ROOT
ATOM      1  O   UNL     1       3.520 -38.856  -9.316  0.00  0.00    +0.000 OA
ATOM      2  C   UNL     1      -3.092 -35.396  -7.608  0.00  0.00    +0.000 C 
ATOM      3  C   UNL     1      -3.438 -33.921  -8.131  0.00  0.00    +0.000 C 
ATOM      4  C   UNL     1      -2.176 -36.284  -8.352  0.00  0.00    +0.000 C 
ATOM      5  C   UNL     1      -1.238 -35.868  -9.451  0.00  0.00    +0.000 C 
ATOM      6  C   UNL     1      -0.365 -36.853 -10.259  0.00  0.00    +0.000 C 
ATOM      7  C   UNL     1      -2.372 -33.571  -9.072  0.00  0.00    +0.000 C 
ATOM      8  C   UNL     1      -1.352 -34.476  -9.719  0.00  0.00    +0.000 C 
ATOM      9  C   UNL     1      -3.391 -33.059  -6.846  0.00  0.00    +0.000 C 
ATOM     10  C   UNL     1      -2.992 -35.311  -6.181  0.00  0.00    +0.000 C 
ATOM     11  C   UNL     1      -1.997 -37.633  -7.968  0.00  0.00    +0.000 C 
ATOM     12  C   UNL     1      -3.119 -33.881  -5.718  0.00  0.00    +0.000 C 
ATOM     13  C   UNL     1      -0.105 -38.321  -9.537  0.00  0.00    +0.000 C 
ATOM     14  C   UNL     1      -1.023 -38.637  -8.505  0.00  0.00    +0.000 C 
ATOM     15  C   UNL     1      -4.852 -33.891  -8.761  0.00  0.00    +0.000 C 
ATOM     16  C   UNL     1       1.025 -36.310 -10.417  0.00  0.00    +0.000 C 
ATOM     17  C   UNL     1      -1.030 -37.137 -11.633  0.00  0.00    +0.000 C 
ATOM     18  C   UNL     1       2.423 -36.913 -10.148  0.00  0.00    +0.000 C 
ATOM     19  C   UNL     1       1.141 -38.723  -9.398  0.00  0.00    +0.000 C 
ATOM     20  C   UNL     1       2.503 -38.252  -9.599  0.00  0.00    +0.000 C 
ENDROOT
BRANCH   9  21
ATOM     21  O   UNL     1      -4.143 -31.908  -6.703  0.00  0.00    +0.000 OA
ATOM     22  H   UNL     1      -4.319 -31.712  -5.762  0.00  0.00    +0.000 HD
ENDBRANCH   9  21
TORSDOF 1
ENDMDL
MODEL 2
REMARK VINA RESULT:      -5.4      3.776      5.568
REMARK  Name = Testosterone.pdbqt.pdb
REMARK  1 active torsions:
REMARK  status: ('A' for Active; 'I' for Inactive)
REMARK    1  A    between atoms: C_9  and  O_21
REMARK                            x       y       z     vdW  Elec       q    Type
REMARK                         _______ _______ _______ _____ _____    ______ ____
ROOT
ATOM      1  O   UNL     1      -2.408 -34.957 -11.988  0.00  0.00    +0.000 OA
ATOM      2  C   UNL     1      -5.914 -35.006  -5.183  0.00  0.00    +0.000 C 
ATOM      3  C   UNL     1      -5.135 -34.665  -3.824  0.00  0.00    +0.000 C 
ATOM      4  C   UNL     1      -5.478 -34.456  -6.482  0.00  0.00    +0.000 C 
ATOM      5  C   UNL     1      -4.150 -33.811  -6.770  0.00  0.00    +0.000 C 
ATOM      6  C   UNL     1      -3.778 -33.171  -8.125  0.00  0.00    +0.000 C 
ATOM      7  C   UNL     1      -3.810 -34.196  -4.232  0.00  0.00    +0.000 C 
ATOM      8  C   UNL     1      -3.341 -33.767  -5.601  0.00  0.00    +0.000 C 
ATOM      9  C   UNL     1      -5.075 -36.025  -3.088  0.00  0.00    +0.000 C 
ATOM     10  C   UNL     1      -6.310 -36.380  -5.093  0.00  0.00    +0.000 C 
ATOM     11  C   UNL     1      -6.257 -34.637  -7.649  0.00  0.00    +0.000 C 
ATOM     12  C   UNL     1      -5.754 -37.018  -3.845  0.00  0.00    +0.000 C 
ATOM     13  C   UNL     1      -4.689 -33.671  -9.415  0.00  0.00    +0.000 C 
ATOM     14  C   UNL     1      -5.920 -34.277  -9.064  0.00  0.00    +0.000 C 
ATOM     15  C   UNL     1      -5.930 -33.626  -2.995  0.00  0.00    +0.000 C 
ATOM     16  C   UNL     1      -2.388 -33.568  -8.525  0.00  0.00    +0.000 C 
ATOM     17  C   UNL     1      -3.930 -31.627  -8.035  0.00  0.00    +0.000 C 
ATOM     18  C   UNL     1      -1.802 -34.166  -9.825  0.00  0.00    +0.000 C 
ATOM     19  C   UNL     1      -4.052 -34.133 -10.471  0.00  0.00    +0.000 C 
ATOM     20  C   UNL     1      -2.708 -34.469 -10.916  0.00  0.00    +0.000 C 
ENDROOT
BRANCH   9  21
ATOM     21  O   UNL     1      -5.022 -36.114  -1.709  0.00  0.00    +0.000 OA
ATOM     22  H   UNL     1      -4.942 -37.043  -1.416  0.00  0.00    +0.000 HD
ENDBRANCH   9  21
TORSDOF 1
ENDMDL
MODEL 3
REMARK VINA RESULT:      -5.4      8.457     12.924
REMARK  Name = Testosterone.pdbqt.pdb
REMARK  1 active torsions:
REMARK  status: ('A' for Active; 'I' for Inactive)
REMARK    1  A    between atoms: C_9  and  O_21
REMARK                            x       y       z     vdW  Elec       q    Type
REMARK                         _______ _______ _______ _____ _____    ______ ____
ROOT
ATOM      1  O   UNL     1      -8.390 -31.125   4.439  0.00  0.00    +0.000 OA
ATOM      2  C   UNL     1      -8.824 -33.095  -2.946  0.00  0.00    +0.000 C 
ATOM      3  C   UNL     1      -8.697 -34.619  -3.427  0.00  0.00    +0.000 C 
ATOM      4  C   UNL     1      -9.325 -32.749  -1.601  0.00  0.00    +0.000 C 
ATOM      5  C   UNL     1      -9.472 -33.694  -0.441  0.00  0.00    +0.000 C 
ATOM      6  C   UNL     1     -10.087 -33.300   0.920  0.00  0.00    +0.000 C 
ATOM      7  C   UNL     1      -8.696 -35.424  -2.205  0.00  0.00    +0.000 C 
ATOM      8  C   UNL     1      -9.082 -35.013  -0.805  0.00  0.00    +0.000 C 
ATOM      9  C   UNL     1      -7.332 -34.658  -4.156  0.00  0.00    +0.000 C 
ATOM     10  C   UNL     1      -7.688 -32.403  -3.478  0.00  0.00    +0.000 C 
ATOM     11  C   UNL     1      -9.578 -31.405  -1.241  0.00  0.00    +0.000 C 
ATOM     12  C   UNL     1      -6.750 -33.361  -4.168  0.00  0.00    +0.000 C 
ATOM     13  C   UNL     1     -10.107 -31.676   1.241  0.00  0.00    +0.000 C 
ATOM     14  C   UNL     1      -9.953 -30.850   0.100  0.00  0.00    +0.000 C 
ATOM     15  C   UNL     1      -9.849 -34.973  -4.399  0.00  0.00    +0.000 C 
ATOM     16  C   UNL     1      -9.261 -33.851   2.045  0.00  0.00    +0.000 C 
ATOM     17  C   UNL     1     -11.558 -33.794   0.993  0.00  0.00    +0.000 C 
ATOM     18  C   UNL     1      -8.647 -33.206   3.309  0.00  0.00    +0.000 C 
ATOM     19  C   UNL     1      -9.571 -31.269   2.373  0.00  0.00    +0.000 C 
ATOM     20  C   UNL     1      -8.824 -31.782   3.512  0.00  0.00    +0.000 C 
ENDROOT
BRANCH   9  21
ATOM     21  O   UNL     1      -7.069 -35.549  -5.180  0.00  0.00    +0.000 OA
ATOM     22  H   UNL     1      -6.148 -35.873  -5.141  0.00  0.00    +0.000 HD
ENDBRANCH   9  21
TORSDOF 1
ENDMDL
MODEL 4
REMARK VINA RESULT:      -5.4     10.011     11.511
REMARK  Name = Testosterone.pdbqt.pdb
REMARK  1 active torsions:
REMARK  status: ('A' for Active; 'I' for Inactive)
REMARK    1  A    between atoms: C_9  and  O_21
REMARK                            x       y       z     vdW  Elec       q    Type
REMARK                         _______ _______ _______ _____ _____    ______ ____
ROOT
ATOM      1  O   UNL     1       4.626 -25.578 -11.852  0.00  0.00    +0.000 OA
ATOM      2  C   UNL     1       6.399 -28.587  -5.040  0.00  0.00    +0.000 C 
ATOM      3  C   UNL     1       5.948 -30.067  -4.623  0.00  0.00    +0.000 C 
ATOM      4  C   UNL     1       6.602 -28.211  -6.453  0.00  0.00    +0.000 C 
ATOM      5  C   UNL     1       6.140 -28.991  -7.652  0.00  0.00    +0.000 C 
ATOM      6  C   UNL     1       6.458 -28.599  -9.112  0.00  0.00    +0.000 C 
ATOM      7  C   UNL     1       5.376 -30.665  -5.830  0.00  0.00    +0.000 C 
ATOM      8  C   UNL     1       5.479 -30.188  -7.258  0.00  0.00    +0.000 C 
ATOM      9  C   UNL     1       4.883 -29.828  -3.526  0.00  0.00    +0.000 C 
ATOM     10  C   UNL     1       5.712 -27.688  -4.160  0.00  0.00    +0.000 C 
ATOM     11  C   UNL     1       7.146 -26.953  -6.802  0.00  0.00    +0.000 C 
ATOM     12  C   UNL     1       4.748 -28.435  -3.274  0.00  0.00    +0.000 C 
ATOM     13  C   UNL     1       6.884 -27.015  -9.340  0.00  0.00    +0.000 C 
ATOM     14  C   UNL     1       7.299 -26.344  -8.163  0.00  0.00    +0.000 C 
ATOM     15  C   UNL     1       7.154 -30.856  -4.055  0.00  0.00    +0.000 C 
ATOM     16  C   UNL     1       5.234 -28.741  -9.969  0.00  0.00    +0.000 C 
ATOM     17  C   UNL     1       7.633 -29.464  -9.643  0.00  0.00    +0.000 C 
ATOM     18  C   UNL     1       4.531 -27.783 -10.959  0.00  0.00    +0.000 C 
ATOM     19  C   UNL     1       6.215 -26.325 -10.240  0.00  0.00    +0.000 C 
ATOM     20  C   UNL     1       5.071 -26.449 -11.131  0.00  0.00    +0.000 C 
ENDROOT
BRANCH   9  21
ATOM     21  O   UNL     1       4.645 -30.744  -2.517  0.00  0.00    +0.000 OA
ATOM     22  H   UNL     1       5.258 -31.503  -2.575  0.00  0.00    +0.000 HD
ENDBRANCH   9  21
TORSDOF 1
ENDMDL
MODEL 5
REMARK VINA RESULT:      -5.2      1.951      3.225
REMARK  Name = Testosterone.pdbqt.pdb
REMARK  1 active torsions:
REMARK  status: ('A' for Active; 'I' for Inactive)
REMARK    1  A    between atoms: C_9  and  O_21
REMARK                            x       y       z     vdW  Elec       q    Type
REMARK                         _______ _______ _______ _____ _____    ______ ____
ROOT
ATOM      1  O   UNL     1      -0.868 -40.033 -11.940  0.00  0.00    +0.000 OA
ATOM      2  C   UNL     1      -4.380 -33.753  -9.325  0.00  0.00    +0.000 C 
ATOM      3  C   UNL     1      -4.222 -33.262  -7.808  0.00  0.00    +0.000 C 
ATOM      4  C   UNL     1      -3.326 -34.541  -9.996  0.00  0.00    +0.000 C 
ATOM      5  C   UNL     1      -2.176 -35.236  -9.322  0.00  0.00    +0.000 C 
ATOM      6  C   UNL     1      -1.049 -35.971 -10.080  0.00  0.00    +0.000 C 
ATOM      7  C   UNL     1      -3.188 -34.114  -7.219  0.00  0.00    +0.000 C 
ATOM      8  C   UNL     1      -2.205 -35.023  -7.916  0.00  0.00    +0.000 C 
ATOM      9  C   UNL     1      -5.618 -33.524  -7.193  0.00  0.00    +0.000 C 
ATOM     10  C   UNL     1      -5.755 -34.122  -9.494  0.00  0.00    +0.000 C 
ATOM     11  C   UNL     1      -3.406 -34.838 -11.376  0.00  0.00    +0.000 C 
ATOM     12  C   UNL     1      -6.498 -34.036  -8.185  0.00  0.00    +0.000 C 
ATOM     13  C   UNL     1      -1.417 -36.417 -11.632  0.00  0.00    +0.000 C 
ATOM     14  C   UNL     1      -2.518 -35.725 -12.195  0.00  0.00    +0.000 C 
ATOM     15  C   UNL     1      -3.877 -31.752  -7.765  0.00  0.00    +0.000 C 
ATOM     16  C   UNL     1      -0.748 -37.285  -9.419  0.00  0.00    +0.000 C 
ATOM     17  C   UNL     1       0.210 -35.065 -10.155  0.00  0.00    +0.000 C 
ATOM     18  C   UNL     1      -0.638 -38.729  -9.961  0.00  0.00    +0.000 C 
ATOM     19  C   UNL     1      -1.247 -37.680 -11.963  0.00  0.00    +0.000 C 
ATOM     20  C   UNL     1      -0.895 -38.961 -11.368  0.00  0.00    +0.000 C 
ENDROOT
BRANCH   9  21
ATOM     21  O   UNL     1      -6.113 -32.772  -6.143  0.00  0.00    +0.000 OA
ATOM     22  H   UNL     1      -6.096 -33.276  -5.306  0.00  0.00    +0.000 HD
ENDBRANCH   9  21
TORSDOF 1
ENDMDL
MODEL 6
REMARK VINA RESULT:      -5.1     20.482     24.084
REMARK  Name = Testosterone.pdbqt.pdb
REMARK  1 active torsions:
REMARK  status: ('A' for Active; 'I' for Inactive)
REMARK    1  A    between atoms: C_9  and  O_21
REMARK                            x       y       z     vdW  Elec       q    Type
REMARK                         _______ _______ _______ _____ _____    ______ ____
ROOT
ATOM      1  O   UNL     1      -3.902 -19.496   0.990  0.00  0.00    +0.000 OA
ATOM      2  C   UNL     1      -5.263 -12.228  -0.992  0.00  0.00    +0.000 C 
ATOM      3  C   UNL     1      -5.141 -11.025   0.059  0.00  0.00    +0.000 C 
ATOM      4  C   UNL     1      -4.479 -13.470  -0.839  0.00  0.00    +0.000 C 
ATOM      5  C   UNL     1      -3.750 -13.910   0.401  0.00  0.00    +0.000 C 
ATOM      6  C   UNL     1      -2.870 -15.176   0.480  0.00  0.00    +0.000 C 
ATOM      7  C   UNL     1      -4.564 -11.610   1.271  0.00  0.00    +0.000 C 
ATOM      8  C   UNL     1      -3.886 -12.948   1.441  0.00  0.00    +0.000 C 
ATOM      9  C   UNL     1      -6.607 -10.573   0.267  0.00  0.00    +0.000 C 
ATOM     10  C   UNL     1      -6.644 -12.304  -1.368  0.00  0.00    +0.000 C 
ATOM     11  C   UNL     1      -4.477 -14.460  -1.848  0.00  0.00    +0.000 C 
ATOM     12  C   UNL     1      -7.473 -11.335  -0.563  0.00  0.00    +0.000 C 
ATOM     13  C   UNL     1      -3.164 -16.314  -0.686  0.00  0.00    +0.000 C 
ATOM     14  C   UNL     1      -3.863 -15.827  -1.817  0.00  0.00    +0.000 C 
ATOM     15  C   UNL     1      -4.291  -9.875  -0.536  0.00  0.00    +0.000 C 
ATOM     16  C   UNL     1      -3.145 -15.924   1.752  0.00  0.00    +0.000 C 
ATOM     17  C   UNL     1      -1.372 -14.781   0.360  0.00  0.00    +0.000 C 
ATOM     18  C   UNL     1      -3.485 -17.403   2.045  0.00  0.00    +0.000 C 
ATOM     19  C   UNL     1      -3.413 -17.545  -0.290  0.00  0.00    +0.000 C 
ATOM     20  C   UNL     1      -3.621 -18.315   0.927  0.00  0.00    +0.000 C 
ENDROOT
BRANCH   9  21
ATOM     21  O   UNL     1      -6.936  -9.275   0.611  0.00  0.00    +0.000 OA
ATOM     22  H   UNL     1      -7.216  -8.760  -0.171  0.00  0.00    +0.000 HD
ENDBRANCH   9  21
TORSDOF 1
ENDMDL
MODEL 7
REMARK VINA RESULT:      -5.1     20.451     22.543
REMARK  Name = Testosterone.pdbqt.pdb
REMARK  1 active torsions:
REMARK  status: ('A' for Active; 'I' for Inactive)
REMARK    1  A    between atoms: C_9  and  O_21
REMARK                            x       y       z     vdW  Elec       q    Type
REMARK                         _______ _______ _______ _____ _____    ______ ____
ROOT
ATOM      1  O   UNL     1     -12.472 -25.622   3.359  0.00  0.00    +0.000 OA
ATOM      2  C   UNL     1     -14.047 -19.005  -0.154  0.00  0.00    +0.000 C 
ATOM      3  C   UNL     1     -15.396 -18.789  -0.990  0.00  0.00    +0.000 C 
ATOM      4  C   UNL     1     -13.977 -19.966   0.965  0.00  0.00    +0.000 C 
ATOM      5  C   UNL     1     -14.977 -21.048   1.267  0.00  0.00    +0.000 C 
ATOM      6  C   UNL     1     -14.904 -21.970   2.504  0.00  0.00    +0.000 C 
ATOM      7  C   UNL     1     -16.217 -19.974  -0.737  0.00  0.00    +0.000 C 
ATOM      8  C   UNL     1     -16.049 -21.027   0.332  0.00  0.00    +0.000 C 
ATOM      9  C   UNL     1     -14.908 -18.716  -2.457  0.00  0.00    +0.000 C 
ATOM     10  C   UNL     1     -12.967 -18.935  -1.094  0.00  0.00    +0.000 C 
ATOM     11  C   UNL     1     -12.833 -20.040   1.793  0.00  0.00    +0.000 C 
ATOM     12  C   UNL     1     -13.490 -18.813  -2.503  0.00  0.00    +0.000 C 
ATOM     13  C   UNL     1     -13.413 -22.077   3.216  0.00  0.00    +0.000 C 
ATOM     14  C   UNL     1     -12.524 -21.028   2.877  0.00  0.00    +0.000 C 
ATOM     15  C   UNL     1     -16.081 -17.464  -0.573  0.00  0.00    +0.000 C 
ATOM     16  C   UNL     1     -15.189 -23.390   2.113  0.00  0.00    +0.000 C 
ATOM     17  C   UNL     1     -15.891 -21.465   3.592  0.00  0.00    +0.000 C 
ATOM     18  C   UNL     1     -14.440 -24.718   2.371  0.00  0.00    +0.000 C 
ATOM     19  C   UNL     1     -12.908 -23.279   3.400  0.00  0.00    +0.000 C 
ATOM     20  C   UNL     1     -13.186 -24.675   3.094  0.00  0.00    +0.000 C 
ENDROOT
BRANCH   9  21
ATOM     21  O   UNL     1     -15.589 -18.001  -3.425  0.00  0.00    +0.000 OA
ATOM     22  H   UNL     1     -14.973 -17.511  -4.004  0.00  0.00    +0.000 HD
ENDBRANCH   9  21
TORSDOF 1
ENDMDL
MODEL 8
REMARK VINA RESULT:      -4.9      3.796      6.578
REMARK  Name = Testosterone.pdbqt.pdb
REMARK  1 active torsions:
REMARK  status: ('A' for Active; 'I' for Inactive)
REMARK    1  A    between atoms: C_9  and  O_21
REMARK                            x       y       z     vdW  Elec       q    Type
REMARK                         _______ _______ _______ _____ _____    ______ ____
ROOT
ATOM      1  O   UNL     1      -4.853 -34.333  -3.495  0.00  0.00    +0.000 OA
ATOM      2  C   UNL     1      -3.762 -35.879 -10.914  0.00  0.00    +0.000 C 
ATOM      3  C   UNL     1      -4.820 -35.443 -12.036  0.00  0.00    +0.000 C 
ATOM      4  C   UNL     1      -3.627 -35.131  -9.648  0.00  0.00    +0.000 C 
ATOM      5  C   UNL     1      -4.604 -34.124  -9.106  0.00  0.00    +0.000 C 
ATOM      6  C   UNL     1      -4.370 -33.302  -7.819  0.00  0.00    +0.000 C 
ATOM      7  C   UNL     1      -5.800 -34.596 -11.353  0.00  0.00    +0.000 C 
ATOM      8  C   UNL     1      -5.702 -33.949  -9.993  0.00  0.00    +0.000 C 
ATOM      9  C   UNL     1      -5.431 -36.787 -12.501  0.00  0.00    +0.000 C 
ATOM     10  C   UNL     1      -3.755 -37.312 -10.893  0.00  0.00    +0.000 C 
ATOM     11  C   UNL     1      -2.590 -35.427  -8.733  0.00  0.00    +0.000 C 
ATOM     12  C   UNL     1      -4.808 -37.867 -11.819  0.00  0.00    +0.000 C 
ATOM     13  C   UNL     1      -3.251 -33.931  -6.773  0.00  0.00    +0.000 C 
ATOM     14  C   UNL     1      -2.373 -34.879  -7.355  0.00  0.00    +0.000 C 
ATOM     15  C   UNL     1      -4.099 -34.732 -13.207  0.00  0.00    +0.000 C 
ATOM     16  C   UNL     1      -5.619 -33.268  -6.988  0.00  0.00    +0.000 C 
ATOM     17  C   UNL     1      -3.889 -31.872  -8.190  0.00  0.00    +0.000 C 
ATOM     18  C   UNL     1      -5.896 -33.577  -5.499  0.00  0.00    +0.000 C 
ATOM     19  C   UNL     1      -3.618 -34.116  -5.522  0.00  0.00    +0.000 C 
ATOM     20  C   UNL     1      -4.796 -34.032  -4.672  0.00  0.00    +0.000 C 
ENDROOT
BRANCH   9  21
ATOM     21  O   UNL     1      -5.930 -36.966 -13.778  0.00  0.00    +0.000 OA
ATOM     22  H   UNL     1      -6.847 -36.634 -13.851  0.00  0.00    +0.000 HD
ENDBRANCH   9  21
TORSDOF 1
ENDMDL
MODEL 9
REMARK VINA RESULT:      -4.7     19.453     23.070
REMARK  Name = Testosterone.pdbqt.pdb
REMARK  1 active torsions:
REMARK  status: ('A' for Active; 'I' for Inactive)
REMARK    1  A    between atoms: C_9  and  O_21
REMARK                            x       y       z     vdW  Elec       q    Type
REMARK                         _______ _______ _______ _____ _____    ______ ____
ROOT
ATOM      1  O   UNL     1      -6.260 -10.968  -0.520  0.00  0.00    +0.000 OA
ATOM      2  C   UNL     1      -1.712 -16.904   1.117  0.00  0.00    +0.000 C 
ATOM      3  C   UNL     1      -1.826 -18.301   0.338  0.00  0.00    +0.000 C 
ATOM      4  C   UNL     1      -2.109 -15.632   0.482  0.00  0.00    +0.000 C 
ATOM      5  C   UNL     1      -2.926 -15.484  -0.772  0.00  0.00    +0.000 C 
ATOM      6  C   UNL     1      -3.237 -14.129  -1.445  0.00  0.00    +0.000 C 
ATOM      7  C   UNL     1      -2.764 -18.069  -0.761  0.00  0.00    +0.000 C 
ATOM      8  C   UNL     1      -3.268 -16.756  -1.310  0.00  0.00    +0.000 C 
ATOM      9  C   UNL     1      -2.399 -19.265   1.404  0.00  0.00    +0.000 C 
ATOM     10  C   UNL     1      -2.083 -17.163   2.476  0.00  0.00    +0.000 C 
ATOM     11  C   UNL     1      -1.862 -14.392   1.116  0.00  0.00    +0.000 C 
ATOM     12  C   UNL     1      -2.555 -18.586   2.643  0.00  0.00    +0.000 C 
ATOM     13  C   UNL     1      -3.082 -12.803  -0.465  0.00  0.00    +0.000 C 
ATOM     14  C   UNL     1      -2.306 -13.023   0.700  0.00  0.00    +0.000 C 
ATOM     15  C   UNL     1      -0.427 -18.770  -0.132  0.00  0.00    +0.000 C 
ATOM     16  C   UNL     1      -4.679 -14.071  -1.857  0.00  0.00    +0.000 C 
ATOM     17  C   UNL     1      -2.285 -13.914  -2.653  0.00  0.00    +0.000 C 
ATOM     18  C   UNL     1      -5.796 -13.030  -1.617  0.00  0.00    +0.000 C 
ATOM     19  C   UNL     1      -4.108 -11.983  -0.378  0.00  0.00    +0.000 C 
ATOM     20  C   UNL     1      -5.491 -11.862  -0.814  0.00  0.00    +0.000 C 
ENDROOT
BRANCH   9  21
ATOM     21  O   UNL     1      -2.141 -20.624   1.383  0.00  0.00    +0.000 OA
ATOM     22  H   UNL     1      -2.265 -21.023   2.266  0.00  0.00    +0.000 HD
ENDBRANCH   9  21
TORSDOF 1
ENDMDL
