MODEL 1
REMARK VINA RESULT:      -2.5      0.000      0.000
REMARK  Name = Tetrachloroethylene.pdbqt.pdb
REMARK  0 active torsions:
REMARK  status: ('A' for Active; 'I' for Inactive)
REMARK                            x       y       z     vdW  Elec       q    Type
REMARK                         _______ _______ _______ _____ _____    ______ ____
ROOT
ATOM      1 CL   UNL     1      -8.965 -31.956  -2.248  0.00  0.00    +0.000 Cl
ATOM      2 CL   UNL     1      -7.478 -33.483  -0.240  0.00  0.00    +0.000 Cl
ATOM      3 CL   UNL     1      -8.806 -31.709   2.093  0.00  0.00    +0.000 Cl
ATOM      4 CL   UNL     1     -10.293 -30.181   0.085  0.00  0.00    +0.000 Cl
ATOM      5  C   UNL     1      -8.608 -32.203  -0.565  0.00  0.00    +0.000 C 
ATOM      6  C   UNL     1      -9.163 -31.462   0.410  0.00  0.00    +0.000 C 
ENDROOT
TORSDOF 0
ENDMDL
MODEL 2
REMARK VINA RESULT:      -2.5     25.630     26.357
REMARK  Name = Tetrachloroethylene.pdbqt.pdb
REMARK  0 active torsions:
REMARK  status: ('A' for Active; 'I' for Inactive)
REMARK                            x       y       z     vdW  Elec       q    Type
REMARK                         _______ _______ _______ _____ _____    ______ ____
ROOT
ATOM      1 CL   UNL     1     -10.863  -5.209  -4.215  0.00  0.00    +0.000 Cl
ATOM      2 CL   UNL     1     -13.407  -6.145  -5.322  0.00  0.00    +0.000 Cl
ATOM      3 CL   UNL     1     -11.819  -7.751  -7.614  0.00  0.00    +0.000 Cl
ATOM      4 CL   UNL     1      -9.275  -6.816  -6.508  0.00  0.00    +0.000 Cl
ATOM      5  C   UNL     1     -11.672  -6.145  -5.436  0.00  0.00    +0.000 C 
ATOM      6  C   UNL     1     -11.009  -6.816  -6.393  0.00  0.00    +0.000 C 
ENDROOT
TORSDOF 0
ENDMDL
MODEL 3
REMARK VINA RESULT:      -2.5     25.751     26.452
REMARK  Name = Tetrachloroethylene.pdbqt.pdb
REMARK  0 active torsions:
REMARK  status: ('A' for Active; 'I' for Inactive)
REMARK                            x       y       z     vdW  Elec       q    Type
REMARK                         _______ _______ _______ _____ _____    ______ ____
ROOT
ATOM      1 CL   UNL     1      -9.444  -4.835  -4.260  0.00  0.00    +0.000 Cl
ATOM      2 CL   UNL     1      -8.662  -6.191  -6.735  0.00  0.00    +0.000 Cl
ATOM      3 CL   UNL     1     -11.607  -7.466  -6.967  0.00  0.00    +0.000 Cl
ATOM      4 CL   UNL     1     -12.390  -6.110  -4.493  0.00  0.00    +0.000 Cl
ATOM      5  C   UNL     1      -9.911  -5.884  -5.565  0.00  0.00    +0.000 C 
ATOM      6  C   UNL     1     -11.141  -6.416  -5.662  0.00  0.00    +0.000 C 
ENDROOT
TORSDOF 0
ENDMDL
MODEL 4
REMARK VINA RESULT:      -2.4     15.114     16.386
REMARK  Name = Tetrachloroethylene.pdbqt.pdb
REMARK  0 active torsions:
REMARK  status: ('A' for Active; 'I' for Inactive)
REMARK                            x       y       z     vdW  Elec       q    Type
REMARK                         _______ _______ _______ _____ _____    ______ ____
ROOT
ATOM      1 CL   UNL     1     -11.488 -17.484   1.334  0.00  0.00    +0.000 Cl
ATOM      2 CL   UNL     1      -8.648 -16.972   1.829  0.00  0.00    +0.000 Cl
ATOM      3 CL   UNL     1      -9.096 -13.853   1.177  0.00  0.00    +0.000 Cl
ATOM      4 CL   UNL     1     -11.936 -14.365   0.682  0.00  0.00    +0.000 Cl
ATOM      5  C   UNL     1     -10.198 -16.320   1.391  0.00  0.00    +0.000 C 
ATOM      6  C   UNL     1     -10.386 -15.017   1.119  0.00  0.00    +0.000 C 
ENDROOT
TORSDOF 0
ENDMDL
MODEL 5
REMARK VINA RESULT:      -2.3     15.401     16.529
REMARK  Name = Tetrachloroethylene.pdbqt.pdb
REMARK  0 active torsions:
REMARK  status: ('A' for Active; 'I' for Inactive)
REMARK                            x       y       z     vdW  Elec       q    Type
REMARK                         _______ _______ _______ _____ _____    ______ ____
ROOT
ATOM      1 CL   UNL     1      -8.483 -16.828   1.774  0.00  0.00    +0.000 Cl
ATOM      2 CL   UNL     1      -8.851 -13.966   1.278  0.00  0.00    +0.000 Cl
ATOM      3 CL   UNL     1     -11.967 -14.475   0.657  0.00  0.00    +0.000 Cl
ATOM      4 CL   UNL     1     -11.599 -17.337   1.154  0.00  0.00    +0.000 Cl
ATOM      5  C   UNL     1      -9.574 -15.546   1.345  0.00  0.00    +0.000 C 
ATOM      6  C   UNL     1     -10.876 -15.758   1.086  0.00  0.00    +0.000 C 
ENDROOT
TORSDOF 0
ENDMDL
MODEL 6
REMARK VINA RESULT:      -2.3     19.052     20.520
REMARK  Name = Tetrachloroethylene.pdbqt.pdb
REMARK  0 active torsions:
REMARK  status: ('A' for Active; 'I' for Inactive)
REMARK                            x       y       z     vdW  Elec       q    Type
REMARK                         _______ _______ _______ _____ _____    ______ ____
ROOT
ATOM      1 CL   UNL     1     -17.941 -12.161  -5.974  0.00  0.00    +0.000 Cl
ATOM      2 CL   UNL     1     -17.988 -13.838  -3.574  0.00  0.00    +0.000 Cl
ATOM      3 CL   UNL     1     -15.338 -15.358  -4.583  0.00  0.00    +0.000 Cl
ATOM      4 CL   UNL     1     -15.290 -13.681  -6.983  0.00  0.00    +0.000 Cl
ATOM      5  C   UNL     1     -17.193 -13.442  -5.068  0.00  0.00    +0.000 C 
ATOM      6  C   UNL     1     -16.086 -14.077  -5.489  0.00  0.00    +0.000 C 
ENDROOT
TORSDOF 0
ENDMDL
MODEL 7
REMARK VINA RESULT:      -2.3     13.831     15.347
REMARK  Name = Tetrachloroethylene.pdbqt.pdb
REMARK  0 active torsions:
REMARK  status: ('A' for Active; 'I' for Inactive)
REMARK                            x       y       z     vdW  Elec       q    Type
REMARK                         _______ _______ _______ _____ _____    ______ ____
ROOT
ATOM      1 CL   UNL     1      -6.565 -30.888 -15.366  0.00  0.00    +0.000 Cl
ATOM      2 CL   UNL     1      -7.096 -29.448 -12.872  0.00  0.00    +0.000 Cl
ATOM      3 CL   UNL     1      -8.673 -27.178 -14.520  0.00  0.00    +0.000 Cl
ATOM      4 CL   UNL     1      -8.141 -28.617 -17.013  0.00  0.00    +0.000 Cl
ATOM      5  C   UNL     1      -7.290 -29.507 -14.599  0.00  0.00    +0.000 C 
ATOM      6  C   UNL     1      -7.948 -28.559 -15.287  0.00  0.00    +0.000 C 
ENDROOT
TORSDOF 0
ENDMDL
MODEL 8
REMARK VINA RESULT:      -2.2     25.752     26.861
REMARK  Name = Tetrachloroethylene.pdbqt.pdb
REMARK  0 active torsions:
REMARK  status: ('A' for Active; 'I' for Inactive)
REMARK                            x       y       z     vdW  Elec       q    Type
REMARK                         _______ _______ _______ _____ _____    ______ ____
ROOT
ATOM      1 CL   UNL     1     -12.387  -4.109  -4.059  0.00  0.00    +0.000 Cl
ATOM      2 CL   UNL     1      -9.730  -5.332  -4.202  0.00  0.00    +0.000 Cl
ATOM      3 CL   UNL     1     -10.802  -7.401  -6.422  0.00  0.00    +0.000 Cl
ATOM      4 CL   UNL     1     -13.458  -6.177  -6.279  0.00  0.00    +0.000 Cl
ATOM      5  C   UNL     1     -11.371  -5.323  -4.777  0.00  0.00    +0.000 C 
ATOM      6  C   UNL     1     -11.818  -6.187  -5.704  0.00  0.00    +0.000 C 
ENDROOT
TORSDOF 0
ENDMDL
MODEL 9
REMARK VINA RESULT:      -2.2      9.263     10.547
REMARK  Name = Tetrachloroethylene.pdbqt.pdb
REMARK  0 active torsions:
REMARK  status: ('A' for Active; 'I' for Inactive)
REMARK                            x       y       z     vdW  Elec       q    Type
REMARK                         _______ _______ _______ _____ _____    ______ ____
ROOT
ATOM      1 CL   UNL     1      -2.984 -33.961  -5.934  0.00  0.00    +0.000 Cl
ATOM      2 CL   UNL     1      -2.373 -35.862  -8.076  0.00  0.00    +0.000 Cl
ATOM      3 CL   UNL     1      -2.724 -33.520 -10.255  0.00  0.00    +0.000 Cl
ATOM      4 CL   UNL     1      -3.335 -31.619  -8.113  0.00  0.00    +0.000 Cl
ATOM      5  C   UNL     1      -2.781 -34.230  -7.639  0.00  0.00    +0.000 C 
ATOM      6  C   UNL     1      -2.927 -33.252  -8.550  0.00  0.00    +0.000 C 
ENDROOT
TORSDOF 0
ENDMDL
