MODEL 1
REMARK VINA RESULT:      -6.3      0.000      0.000
REMARK  Name = Thalidomide.pdbqt.pdb
REMARK  1 active torsions:
REMARK  status: ('A' for Active; 'I' for Inactive)
REMARK    1  A    between atoms: N_3  and  C_12
REMARK                            x       y       z     vdW  Elec       q    Type
REMARK                         _______ _______ _______ _____ _____    ______ ____
ROOT
ATOM      1  O   UNL     1      -2.760 -36.230  -7.120  0.00  0.00    +0.000 OA
ATOM      2  O   UNL     1      -4.181 -31.854  -7.070  0.00  0.00    +0.000 OA
ATOM      3  N   UNL     1      -3.562 -34.078  -6.594  0.00  0.00    +0.000 N 
ATOM      4  C   UNL     1      -2.888 -35.036  -7.317  0.00  0.00    +0.000 C 
ATOM      5  C   UNL     1      -3.525 -32.864  -7.245  0.00  0.00    +0.000 C 
ATOM      6  C   UNL     1      -2.271 -34.355  -8.450  0.00  0.00    +0.000 A 
ATOM      7  C   UNL     1      -2.643 -33.028  -8.394  0.00  0.00    +0.000 A 
ATOM      8  C   UNL     1      -1.471 -34.853  -9.456  0.00  0.00    +0.000 A 
ATOM      9  C   UNL     1      -2.251 -32.114  -9.350  0.00  0.00    +0.000 A 
ATOM     10  C   UNL     1      -1.048 -33.944 -10.428  0.00  0.00    +0.000 A 
ATOM     11  C   UNL     1      -1.433 -32.593 -10.376  0.00  0.00    +0.000 A 
ENDROOT
BRANCH   3  12
ATOM     12  C   UNL     1      -4.282 -34.323  -5.451  0.00  0.00    +0.000 C 
ATOM     13  C   UNL     1      -5.576 -34.888  -5.458  0.00  0.00    +0.000 C 
ATOM     14  C   UNL     1      -6.407 -34.993  -4.217  0.00  0.00    +0.000 C 
ATOM     15  C   UNL     1      -5.923 -34.575  -2.935  0.00  0.00    +0.000 C 
ATOM     16  O   UNL     1      -6.571 -34.731  -1.913  0.00  0.00    +0.000 OA
ATOM     17  N   UNL     1      -4.637 -34.042  -2.988  0.00  0.00    +0.000 N 
ATOM     18  C   UNL     1      -3.729 -34.038  -4.057  0.00  0.00    +0.000 C 
ATOM     19  H   UNL     1      -4.220 -33.867  -2.085  0.00  0.00    +0.000 HD
ATOM     20  O   UNL     1      -2.525 -33.941  -3.838  0.00  0.00    +0.000 OA
ENDBRANCH   3  12
TORSDOF 1
ENDMDL
MODEL 2
REMARK VINA RESULT:      -6.2      0.135      2.012
REMARK  Name = Thalidomide.pdbqt.pdb
REMARK  1 active torsions:
REMARK  status: ('A' for Active; 'I' for Inactive)
REMARK    1  A    between atoms: N_3  and  C_12
REMARK                            x       y       z     vdW  Elec       q    Type
REMARK                         _______ _______ _______ _____ _____    ______ ____
ROOT
ATOM      1  O   UNL     1      -4.021 -31.815  -6.950  0.00  0.00    +0.000 OA
ATOM      2  O   UNL     1      -2.540 -36.170  -6.869  0.00  0.00    +0.000 OA
ATOM      3  N   UNL     1      -3.681 -34.123  -6.620  0.00  0.00    +0.000 N 
ATOM      4  C   UNL     1      -3.553 -32.901  -7.239  0.00  0.00    +0.000 C 
ATOM      5  C   UNL     1      -2.890 -35.066  -7.241  0.00  0.00    +0.000 C 
ATOM      6  C   UNL     1      -2.716 -33.107  -8.415  0.00  0.00    +0.000 A 
ATOM      7  C   UNL     1      -2.328 -34.431  -8.427  0.00  0.00    +0.000 A 
ATOM      8  C   UNL     1      -2.307 -32.213  -9.383  0.00  0.00    +0.000 A 
ATOM      9  C   UNL     1      -1.495 -34.945  -9.398  0.00  0.00    +0.000 A 
ATOM     10  C   UNL     1      -1.476 -32.713 -10.387  0.00  0.00    +0.000 A 
ATOM     11  C   UNL     1      -1.075 -34.061 -10.394  0.00  0.00    +0.000 A 
ENDROOT
BRANCH   3  12
ATOM     12  C   UNL     1      -4.393 -34.346  -5.467  0.00  0.00    +0.000 C 
ATOM     13  C   UNL     1      -5.697 -34.888  -5.457  0.00  0.00    +0.000 C 
ATOM     14  C   UNL     1      -6.517 -34.968  -4.206  0.00  0.00    +0.000 C 
ATOM     15  C   UNL     1      -6.011 -34.547  -2.933  0.00  0.00    +0.000 C 
ATOM     16  O   UNL     1      -6.652 -34.683  -1.903  0.00  0.00    +0.000 OA
ATOM     17  N   UNL     1      -4.717 -34.037  -3.004  0.00  0.00    +0.000 N 
ATOM     18  C   UNL     1      -3.821 -34.059  -4.082  0.00  0.00    +0.000 C 
ATOM     19  H   UNL     1      -4.288 -33.862  -2.107  0.00  0.00    +0.000 HD
ATOM     20  O   UNL     1      -2.613 -33.981  -3.877  0.00  0.00    +0.000 OA
ENDBRANCH   3  12
TORSDOF 1
ENDMDL
MODEL 3
REMARK VINA RESULT:      -5.3      3.418      5.009
REMARK  Name = Thalidomide.pdbqt.pdb
REMARK  1 active torsions:
REMARK  status: ('A' for Active; 'I' for Inactive)
REMARK    1  A    between atoms: N_3  and  C_12
REMARK                            x       y       z     vdW  Elec       q    Type
REMARK                         _______ _______ _______ _____ _____    ______ ____
ROOT
ATOM      1  O   UNL     1      -2.054 -34.052  -4.249  0.00  0.00    +0.000 OA
ATOM      2  O   UNL     1      -4.706 -37.644  -5.360  0.00  0.00    +0.000 OA
ATOM      3  N   UNL     1      -3.258 -36.074  -4.363  0.00  0.00    +0.000 N 
ATOM      4  C   UNL     1      -2.949 -34.766  -4.661  0.00  0.00    +0.000 C 
ATOM      5  C   UNL     1      -4.302 -36.516  -5.147  0.00  0.00    +0.000 C 
ATOM      6  C   UNL     1      -3.947 -34.303  -5.618  0.00  0.00    +0.000 A 
ATOM      7  C   UNL     1      -4.784 -35.363  -5.898  0.00  0.00    +0.000 A 
ATOM      8  C   UNL     1      -4.103 -33.067  -6.211  0.00  0.00    +0.000 A 
ATOM      9  C   UNL     1      -5.822 -35.263  -6.800  0.00  0.00    +0.000 A 
ATOM     10  C   UNL     1      -5.157 -32.936  -7.117  0.00  0.00    +0.000 A 
ATOM     11  C   UNL     1      -6.005 -34.019  -7.408  0.00  0.00    +0.000 A 
ENDROOT
BRANCH   3  12
ATOM     12  C   UNL     1      -2.546 -36.869  -3.499  0.00  0.00    +0.000 C 
ATOM     13  C   UNL     1      -2.774 -36.895  -2.105  0.00  0.00    +0.000 C 
ATOM     14  C   UNL     1      -1.878 -37.642  -1.166  0.00  0.00    +0.000 C 
ATOM     15  C   UNL     1      -0.765 -38.418  -1.625  0.00  0.00    +0.000 C 
ATOM     16  O   UNL     1      -0.082 -39.087  -0.867  0.00  0.00    +0.000 OA
ATOM     17  N   UNL     1      -0.601 -38.367  -3.007  0.00  0.00    +0.000 N 
ATOM     18  C   UNL     1      -1.460 -37.829  -3.976  0.00  0.00    +0.000 C 
ATOM     19  H   UNL     1       0.088 -39.010  -3.370  0.00  0.00    +0.000 HD
ATOM     20  O   UNL     1      -1.408 -38.233  -5.134  0.00  0.00    +0.000 OA
ENDBRANCH   3  12
TORSDOF 1
ENDMDL
MODEL 4
REMARK VINA RESULT:      -5.2      6.356      9.139
REMARK  Name = Thalidomide.pdbqt.pdb
REMARK  1 active torsions:
REMARK  status: ('A' for Active; 'I' for Inactive)
REMARK    1  A    between atoms: N_3  and  C_12
REMARK                            x       y       z     vdW  Elec       q    Type
REMARK                         _______ _______ _______ _____ _____    ______ ____
ROOT
ATOM      1  O   UNL     1      -0.113 -32.302 -10.416  0.00  0.00    +0.000 OA
ATOM      2  O   UNL     1       4.143 -33.933 -11.037  0.00  0.00    +0.000 OA
ATOM      3  N   UNL     1       2.208 -32.663 -10.597  0.00  0.00    +0.000 N 
ATOM      4  C   UNL     1       0.883 -33.001 -10.444  0.00  0.00    +0.000 C 
ATOM      5  C   UNL     1       2.992 -33.794 -10.671  0.00  0.00    +0.000 C 
ATOM      6  C   UNL     1       0.831 -34.450 -10.285  0.00  0.00    +0.000 A 
ATOM      7  C   UNL     1       2.118 -34.930 -10.403  0.00  0.00    +0.000 A 
ATOM      8  C   UNL     1      -0.248 -35.283 -10.076  0.00  0.00    +0.000 A 
ATOM      9  C   UNL     1       2.410 -36.277 -10.335  0.00  0.00    +0.000 A 
ATOM     10  C   UNL     1       0.023 -36.649  -9.987  0.00  0.00    +0.000 A 
ATOM     11  C   UNL     1       1.334 -37.140 -10.115  0.00  0.00    +0.000 A 
ENDROOT
BRANCH   3  12
ATOM     12  C   UNL     1       2.673 -31.384 -10.782  0.00  0.00    +0.000 C 
ATOM     13  C   UNL     1       3.323 -30.644  -9.770  0.00  0.00    +0.000 C 
ATOM     14  C   UNL     1       3.672 -29.197  -9.940  0.00  0.00    +0.000 C 
ATOM     15  C   UNL     1       3.416 -28.487 -11.158  0.00  0.00    +0.000 C 
ATOM     16  O   UNL     1       3.769 -27.331 -11.322  0.00  0.00    +0.000 OA
ATOM     17  N   UNL     1       2.789 -29.272 -12.122  0.00  0.00    +0.000 N 
ATOM     18  C   UNL     1       2.559 -30.656 -12.118  0.00  0.00    +0.000 C 
ATOM     19  H   UNL     1       2.720 -28.840 -13.032  0.00  0.00    +0.000 HD
ATOM     20  O   UNL     1       2.408 -31.255 -13.178  0.00  0.00    +0.000 OA
ENDBRANCH   3  12
TORSDOF 1
ENDMDL
MODEL 5
REMARK VINA RESULT:      -5.2      6.182      8.832
REMARK  Name = Thalidomide.pdbqt.pdb
REMARK  1 active torsions:
REMARK  status: ('A' for Active; 'I' for Inactive)
REMARK    1  A    between atoms: N_3  and  C_12
REMARK                            x       y       z     vdW  Elec       q    Type
REMARK                         _______ _______ _______ _____ _____    ______ ____
ROOT
ATOM      1  O   UNL     1       3.982 -34.011 -10.658  0.00  0.00    +0.000 OA
ATOM      2  O   UNL     1      -0.284 -32.371 -10.136  0.00  0.00    +0.000 OA
ATOM      3  N   UNL     1       1.980 -32.768 -10.652  0.00  0.00    +0.000 N 
ATOM      4  C   UNL     1       2.774 -33.889 -10.573  0.00  0.00    +0.000 C 
ATOM      5  C   UNL     1       0.664 -33.086 -10.396  0.00  0.00    +0.000 C 
ATOM      6  C   UNL     1       1.882 -35.026 -10.374  0.00  0.00    +0.000 A 
ATOM      7  C   UNL     1       0.595 -34.539 -10.286  0.00  0.00    +0.000 A 
ATOM      8  C   UNL     1       2.169 -36.370 -10.258  0.00  0.00    +0.000 A 
ATOM      9  C   UNL     1      -0.489 -35.361 -10.062  0.00  0.00    +0.000 A 
ATOM     10  C   UNL     1       1.086 -37.225 -10.046  0.00  0.00    +0.000 A 
ATOM     11  C   UNL     1      -0.226 -36.728  -9.949  0.00  0.00    +0.000 A 
ENDROOT
BRANCH   3  12
ATOM     12  C   UNL     1       2.448 -31.490 -10.831  0.00  0.00    +0.000 C 
ATOM     13  C   UNL     1       3.247 -30.818  -9.878  0.00  0.00    +0.000 C 
ATOM     14  C   UNL     1       3.606 -29.371 -10.018  0.00  0.00    +0.000 C 
ATOM     15  C   UNL     1       3.207 -28.590 -11.152  0.00  0.00    +0.000 C 
ATOM     16  O   UNL     1       3.565 -27.433 -11.301  0.00  0.00    +0.000 OA
ATOM     17  N   UNL     1       2.438 -29.310 -12.063  0.00  0.00    +0.000 N 
ATOM     18  C   UNL     1       2.177 -30.687 -12.099  0.00  0.00    +0.000 C 
ATOM     19  H   UNL     1       2.260 -28.827 -12.931  0.00  0.00    +0.000 HD
ATOM     20  O   UNL     1       1.870 -31.224 -13.160  0.00  0.00    +0.000 OA
ENDBRANCH   3  12
TORSDOF 1
ENDMDL
MODEL 6
REMARK VINA RESULT:      -5.1      8.894     10.651
REMARK  Name = Thalidomide.pdbqt.pdb
REMARK  1 active torsions:
REMARK  status: ('A' for Active; 'I' for Inactive)
REMARK    1  A    between atoms: N_3  and  C_12
REMARK                            x       y       z     vdW  Elec       q    Type
REMARK                         _______ _______ _______ _____ _____    ______ ____
ROOT
ATOM      1  O   UNL     1      -9.362 -31.089 -16.596  0.00  0.00    +0.000 OA
ATOM      2  O   UNL     1      -7.009 -28.933 -13.283  0.00  0.00    +0.000 OA
ATOM      3  N   UNL     1      -7.927 -30.441 -14.844  0.00  0.00    +0.000 N 
ATOM      4  C   UNL     1      -8.749 -30.272 -15.934  0.00  0.00    +0.000 C 
ATOM      5  C   UNL     1      -7.524 -29.220 -14.347  0.00  0.00    +0.000 C 
ATOM      6  C   UNL     1      -8.772 -28.844 -16.230  0.00  0.00    +0.000 A 
ATOM      7  C   UNL     1      -8.009 -28.206 -15.274  0.00  0.00    +0.000 A 
ATOM      8  C   UNL     1      -9.420 -28.155 -17.234  0.00  0.00    +0.000 A 
ATOM      9  C   UNL     1      -7.855 -26.836 -15.250  0.00  0.00    +0.000 A 
ATOM     10  C   UNL     1      -9.266 -26.767 -17.241  0.00  0.00    +0.000 A 
ATOM     11  C   UNL     1      -8.495 -26.116 -16.262  0.00  0.00    +0.000 A 
ENDROOT
BRANCH   3  12
ATOM     12  C   UNL     1      -7.652 -31.649 -14.251  0.00  0.00    +0.000 C 
ATOM     13  C   UNL     1      -8.515 -32.269 -13.321  0.00  0.00    +0.000 C 
ATOM     14  C   UNL     1      -8.120 -33.500 -12.565  0.00  0.00    +0.000 C 
ATOM     15  C   UNL     1      -6.864 -34.156 -12.775  0.00  0.00    +0.000 C 
ATOM     16  O   UNL     1      -6.575 -35.200 -12.214  0.00  0.00    +0.000 OA
ATOM     17  N   UNL     1      -6.063 -33.508 -13.713  0.00  0.00    +0.000 N 
ATOM     18  C   UNL     1      -6.396 -32.452 -14.574  0.00  0.00    +0.000 C 
ATOM     19  H   UNL     1      -5.235 -34.020 -13.979  0.00  0.00    +0.000 HD
ATOM     20  O   UNL     1      -5.763 -32.287 -15.613  0.00  0.00    +0.000 OA
ENDBRANCH   3  12
TORSDOF 1
ENDMDL
MODEL 7
REMARK VINA RESULT:      -5.1     19.502     21.019
REMARK  Name = Thalidomide.pdbqt.pdb
REMARK  1 active torsions:
REMARK  status: ('A' for Active; 'I' for Inactive)
REMARK    1  A    between atoms: N_3  and  C_12
REMARK                            x       y       z     vdW  Elec       q    Type
REMARK                         _______ _______ _______ _____ _____    ______ ____
ROOT
ATOM      1  O   UNL     1      -1.538 -12.671  -0.562  0.00  0.00    +0.000 OA
ATOM      2  O   UNL     1      -4.615 -15.118  -2.952  0.00  0.00    +0.000 OA
ATOM      3  N   UNL     1      -2.785 -14.311  -1.706  0.00  0.00    +0.000 N 
ATOM      4  C   UNL     1      -2.563 -13.136  -1.025  0.00  0.00    +0.000 C 
ATOM      5  C   UNL     1      -4.093 -14.384  -2.135  0.00  0.00    +0.000 C 
ATOM      6  C   UNL     1      -3.854 -12.466  -0.906  0.00  0.00    +0.000 A 
ATOM      7  C   UNL     1      -4.788 -13.236  -1.565  0.00  0.00    +0.000 A 
ATOM      8  C   UNL     1      -4.183 -11.275  -0.292  0.00  0.00    +0.000 A 
ATOM      9  C   UNL     1      -6.111 -12.860  -1.667  0.00  0.00    +0.000 A 
ATOM     10  C   UNL     1      -5.520 -10.880  -0.369  0.00  0.00    +0.000 A 
ATOM     11  C   UNL     1      -6.471 -11.662  -1.047  0.00  0.00    +0.000 A 
ENDROOT
BRANCH   3  12
ATOM     12  C   UNL     1      -1.812 -15.225  -2.026  0.00  0.00    +0.000 C 
ATOM     13  C   UNL     1      -1.520 -16.355  -1.230  0.00  0.00    +0.000 C 
ATOM     14  C   UNL     1      -0.348 -17.245  -1.510  0.00  0.00    +0.000 C 
ATOM     15  C   UNL     1       0.520 -17.037  -2.631  0.00  0.00    +0.000 C 
ATOM     16  O   UNL     1       1.428 -17.806  -2.900  0.00  0.00    +0.000 OA
ATOM     17  N   UNL     1       0.173 -15.919  -3.386  0.00  0.00    +0.000 N 
ATOM     18  C   UNL     1      -0.977 -15.121  -3.298  0.00  0.00    +0.000 C 
ATOM     19  H   UNL     1       0.681 -15.828  -4.253  0.00  0.00    +0.000 HD
ATOM     20  O   UNL     1      -1.348 -14.474  -4.273  0.00  0.00    +0.000 OA
ENDBRANCH   3  12
TORSDOF 1
ENDMDL
MODEL 8
REMARK VINA RESULT:      -5.1     19.491     21.478
REMARK  Name = Thalidomide.pdbqt.pdb
REMARK  1 active torsions:
REMARK  status: ('A' for Active; 'I' for Inactive)
REMARK    1  A    between atoms: N_3  and  C_12
REMARK                            x       y       z     vdW  Elec       q    Type
REMARK                         _______ _______ _______ _____ _____    ______ ____
ROOT
ATOM      1  O   UNL     1       0.721 -12.634  -3.534  0.00  0.00    +0.000 OA
ATOM      2  O   UNL     1      -1.909 -15.092  -6.398  0.00  0.00    +0.000 OA
ATOM      3  N   UNL     1      -0.186 -13.957  -5.259  0.00  0.00    +0.000 N 
ATOM      4  C   UNL     1      -0.112 -13.381  -4.011  0.00  0.00    +0.000 C 
ATOM      5  C   UNL     1      -1.365 -14.657  -5.401  0.00  0.00    +0.000 C 
ATOM      6  C   UNL     1      -1.271 -13.849  -3.260  0.00  0.00    +0.000 A 
ATOM      7  C   UNL     1      -2.024 -14.642  -4.100  0.00  0.00    +0.000 A 
ATOM      8  C   UNL     1      -1.650 -13.589  -1.959  0.00  0.00    +0.000 A 
ATOM      9  C   UNL     1      -3.212 -15.216  -3.701  0.00  0.00    +0.000 A 
ATOM     10  C   UNL     1      -2.843 -14.172  -1.526  0.00  0.00    +0.000 A 
ATOM     11  C   UNL     1      -3.614 -14.975  -2.385  0.00  0.00    +0.000 A 
ENDROOT
BRANCH   3  12
ATOM     12  C   UNL     1       0.723 -13.757  -6.268  0.00  0.00    +0.000 C 
ATOM     13  C   UNL     1       1.828 -14.609  -6.493  0.00  0.00    +0.000 C 
ATOM     14  C   UNL     1       2.896 -14.280  -7.491  0.00  0.00    +0.000 C 
ATOM     15  C   UNL     1       2.838 -13.110  -8.316  0.00  0.00    +0.000 C 
ATOM     16  O   UNL     1       3.669 -12.884  -9.180  0.00  0.00    +0.000 OA
ATOM     17  N   UNL     1       1.720 -12.320  -8.060  0.00  0.00    +0.000 N 
ATOM     18  C   UNL     1       0.601 -12.610  -7.266  0.00  0.00    +0.000 C 
ATOM     19  H   UNL     1       1.584 -11.566  -8.716  0.00  0.00    +0.000 HD
ATOM     20  O   UNL     1      -0.465 -12.039  -7.479  0.00  0.00    +0.000 OA
ENDBRANCH   3  12
TORSDOF 1
ENDMDL
MODEL 9
REMARK VINA RESULT:      -5.0     12.427     14.905
REMARK  Name = Thalidomide.pdbqt.pdb
REMARK  1 active torsions:
REMARK  status: ('A' for Active; 'I' for Inactive)
REMARK    1  A    between atoms: N_3  and  C_12
REMARK                            x       y       z     vdW  Elec       q    Type
REMARK                         _______ _______ _______ _____ _____    ______ ____
ROOT
ATOM      1  O   UNL     1      -7.843 -28.569 -18.525  0.00  0.00    +0.000 OA
ATOM      2  O   UNL     1      -9.181 -25.710 -15.178  0.00  0.00    +0.000 OA
ATOM      3  N   UNL     1      -8.891 -26.969 -17.149  0.00  0.00    +0.000 N 
ATOM      4  C   UNL     1      -8.119 -28.068 -17.451  0.00  0.00    +0.000 C 
ATOM      5  C   UNL     1      -8.846 -26.702 -15.797  0.00  0.00    +0.000 C 
ATOM      6  C   UNL     1      -7.647 -28.615 -16.184  0.00  0.00    +0.000 A 
ATOM      7  C   UNL     1      -8.107 -27.794 -15.176  0.00  0.00    +0.000 A 
ATOM      8  C   UNL     1      -6.864 -29.722 -15.931  0.00  0.00    +0.000 A 
ATOM      9  C   UNL     1      -7.803 -28.017 -13.849  0.00  0.00    +0.000 A 
ATOM     10  C   UNL     1      -6.556 -29.979 -14.594  0.00  0.00    +0.000 A 
ATOM     11  C   UNL     1      -7.019 -29.138 -13.567  0.00  0.00    +0.000 A 
ENDROOT
BRANCH   3  12
ATOM     12  C   UNL     1      -9.514 -26.172 -18.077  0.00  0.00    +0.000 C 
ATOM     13  C   UNL     1      -8.861 -25.116 -18.752  0.00  0.00    +0.000 C 
ATOM     14  C   UNL     1      -9.600 -24.157 -19.633  0.00  0.00    +0.000 C 
ATOM     15  C   UNL     1     -11.004 -24.280 -19.889  0.00  0.00    +0.000 C 
ATOM     16  O   UNL     1     -11.590 -23.544 -20.666  0.00  0.00    +0.000 OA
ATOM     17  N   UNL     1     -11.589 -25.346 -19.210  0.00  0.00    +0.000 N 
ATOM     18  C   UNL     1     -10.967 -26.378 -18.492  0.00  0.00    +0.000 C 
ATOM     19  H   UNL     1     -12.543 -25.538 -19.477  0.00  0.00    +0.000 HD
ATOM     20  O   UNL     1     -11.547 -27.449 -18.333  0.00  0.00    +0.000 OA
ENDBRANCH   3  12
TORSDOF 1
ENDMDL
