MODEL 1
REMARK VINA RESULT:      -6.8      0.000      0.000
REMARK  Name = Thapsigargin.pdbqt.pdb
REMARK  10 active torsions:
REMARK  status: ('A' for Active; 'I' for Inactive)
REMARK    1  A    between atoms: O_2  and  C_24
REMARK    2  A    between atoms: C_17  and  O_43
REMARK    3  A    between atoms: C_19  and  C_24
REMARK    4  A    between atoms: C_19  and  O_47
REMARK    5  A    between atoms: C_27  and  C_35
REMARK    6  A    between atoms: C_35  and  C_36
REMARK    7  A    between atoms: C_37  and  C_38
REMARK    8  A    between atoms: C_39  and  C_40
REMARK    9  A    between atoms: C_42  and  O_43
REMARK   10  A    between atoms: C_42  and  C_44
REMARK                            x       y       z     vdW  Elec       q    Type
REMARK                         _______ _______ _______ _____ _____    ______ ____
ROOT
ATOM      1  O   UNL     1      -4.617 -36.981   1.284  0.00  0.00    +0.000 OA
ATOM      2  O   UNL     1      -4.976 -36.189  -4.711  0.00  0.00    +0.000 OA
ATOM      3  O   UNL     1      -4.895 -33.795  -3.813  0.00  0.00    +0.000 OA
ATOM      4  O   UNL     1      -8.318 -35.476  -2.114  0.00  0.00    +0.000 OA
ATOM      5  O   UNL     1      -3.414 -37.365   3.189  0.00  0.00    +0.000 OA
ATOM      6  O   UNL     1      -3.539 -34.340  -3.998  0.00  0.00    +0.000 OA
ATOM      7  O   UNL     1      -6.570 -32.596  -5.137  0.00  0.00    +0.000 OA
ATOM      8  O   UNL     1      -8.038 -34.613   0.206  0.00  0.00    +0.000 OA
ATOM      9  C   UNL     1      -5.396 -37.424  -2.532  0.00  0.00    +0.000 C 
ATOM     10  C   UNL     1      -3.135 -37.901  -0.250  0.00  0.00    +0.000 C 
ATOM     11  C   UNL     1      -4.424 -37.309  -0.052  0.00  0.00    +0.000 C 
ATOM     12  C   UNL     1      -4.283 -38.086  -3.271  0.00  0.00    +0.000 C 
ATOM     13  C   UNL     1      -5.363 -37.126  -1.006  0.00  0.00    +0.000 C 
ATOM     14  C   UNL     1      -2.862 -38.376  -1.421  0.00  0.00    +0.000 C 
ATOM     15  C   UNL     1      -3.164 -38.643  -2.773  0.00  0.00    +0.000 C 
ATOM     16  C   UNL     1      -6.783 -37.245  -2.898  0.00  0.00    +0.000 C 
ATOM     17  C   UNL     1      -2.414 -37.951   1.035  0.00  0.00    +0.000 C 
ATOM     18  C   UNL     1      -7.440 -36.537  -1.871  0.00  0.00    +0.000 C 
ATOM     19  C   UNL     1      -6.699 -36.582  -0.743  0.00  0.00    +0.000 C 
ATOM     20  C   UNL     1      -4.502 -36.635  -3.426  0.00  0.00    +0.000 C 
ATOM     21  C   UNL     1      -3.499 -37.402   1.965  0.00  0.00    +0.000 C 
ATOM     22  C   UNL     1      -7.171 -35.618   0.158  0.00  0.00    +0.000 C 
ATOM     23  C   UNL     1      -3.668 -35.753  -4.318  0.00  0.00    +0.000 C 
ATOM     24  C   UNL     1      -5.282 -33.084  -4.955  0.00  0.00    +0.000 C 
ATOM     25  C   UNL     1      -8.301 -34.377  -1.177  0.00  0.00    +0.000 C 
ATOM     26  C   UNL     1      -2.557 -36.287  -5.231  0.00  0.00    +0.000 C 
ATOM     27  C   UNL     1      -8.273 -33.114  -1.649  0.00  0.00    +0.000 C 
ATOM     28  C   UNL     1      -8.210 -31.920  -0.723  0.00  0.00    +0.000 C 
ATOM     29  C   UNL     1      -7.904 -32.865  -3.002  0.00  0.00    +0.000 C 
ATOM     30  C   UNL     1      -7.320 -32.724  -4.043  0.00  0.00    +0.000 C 
ENDROOT
BRANCH  17  31
ATOM     31  O   UNL     1      -2.035 -39.280   1.349  0.00  0.00    +0.000 OA
ATOM     32  H   UNL     1      -2.399 -39.833   0.631  0.00  0.00    +0.000 HD
ENDBRANCH  17  31
BRANCH  17  33
ATOM     33  C   UNL     1      -1.219 -37.089   0.997  0.00  0.00    +0.000 C 
BRANCH  33  34
ATOM     34  O   UNL     1      -0.149 -36.296   0.982  0.00  0.00    +0.000 OA
ATOM     35  H   UNL     1       0.421 -36.491   0.214  0.00  0.00    +0.000 HD
ENDBRANCH  33  34
ENDBRANCH  17  33
BRANCH  24  36
ATOM     36  C   UNL     1      -4.510 -33.001  -5.996  0.00  0.00    +0.000 C 
BRANCH  36  37
ATOM     37  C   UNL     1      -3.617 -32.856  -7.233  0.00  0.00    +0.000 C 
ATOM     38  C   UNL     1      -2.919 -32.706  -8.198  0.00  0.00    +0.000 C 
BRANCH  38  39
ATOM     39  C   UNL     1      -2.028 -32.487  -9.425  0.00  0.00    +0.000 C 
ATOM     40  C   UNL     1      -1.326 -32.303 -10.381  0.00  0.00    +0.000 C 
BRANCH  40  41
ATOM     41  C   UNL     1      -0.428 -32.060 -11.598  0.00  0.00    +0.000 C 
ATOM     42  C   UNL     1       0.356 -31.850 -12.654  0.00  0.00    +0.000 C 
ENDBRANCH  40  41
ENDBRANCH  38  39
ENDBRANCH  36  37
ENDBRANCH  24  36
BRANCH  15  43
ATOM     43  O   UNL     1      -2.501 -39.661  -3.469  0.00  0.00    +0.000 OA
BRANCH  43  45
ATOM     44  O   UNL     1      -0.288 -39.101  -3.008  0.00  0.00    +0.000 OA
ATOM     45  C   UNL     1      -1.200 -39.373  -3.776  0.00  0.00    +0.000 C 
BRANCH  45  46
ATOM     46  C   UNL     1      -0.969 -39.411  -5.188  0.00  0.00    +0.000 C 
ATOM     47  C   UNL     1      -0.771 -39.439  -6.368  0.00  0.00    +0.000 C 
ATOM     48  C   UNL     1      -0.532 -39.479  -7.879  0.00  0.00    +0.000 C 
ENDBRANCH  45  46
ENDBRANCH  43  45
ENDBRANCH  15  43
TORSDOF 10
ENDMDL
MODEL 2
REMARK VINA RESULT:      -6.1      2.415      7.516
REMARK  Name = Thapsigargin.pdbqt.pdb
REMARK  10 active torsions:
REMARK  status: ('A' for Active; 'I' for Inactive)
REMARK    1  A    between atoms: O_2  and  C_24
REMARK    2  A    between atoms: C_17  and  O_43
REMARK    3  A    between atoms: C_19  and  C_24
REMARK    4  A    between atoms: C_19  and  O_47
REMARK    5  A    between atoms: C_27  and  C_35
REMARK    6  A    between atoms: C_35  and  C_36
REMARK    7  A    between atoms: C_37  and  C_38
REMARK    8  A    between atoms: C_39  and  C_40
REMARK    9  A    between atoms: C_42  and  O_43
REMARK   10  A    between atoms: C_42  and  C_44
REMARK                            x       y       z     vdW  Elec       q    Type
REMARK                         _______ _______ _______ _____ _____    ______ ____
ROOT
ATOM      1  O   UNL     1      -3.060 -39.911  -5.445  0.00  0.00    +0.000 OA
ATOM      2  O   UNL     1      -4.543 -34.700  -2.733  0.00  0.00    +0.000 OA
ATOM      3  O   UNL     1      -6.271 -34.891  -4.609  0.00  0.00    +0.000 OA
ATOM      4  O   UNL     1      -2.573 -34.806  -6.546  0.00  0.00    +0.000 OA
ATOM      5  O   UNL     1      -3.153 -42.190  -5.602  0.00  0.00    +0.000 OA
ATOM      6  O   UNL     1      -6.715 -35.609  -3.402  0.00  0.00    +0.000 OA
ATOM      7  O   UNL     1      -6.409 -32.628  -5.535  0.00  0.00    +0.000 OA
ATOM      8  O   UNL     1      -2.986 -36.617  -8.204  0.00  0.00    +0.000 OA
ATOM      9  C   UNL     1      -2.938 -36.524  -3.475  0.00  0.00    +0.000 C 
ATOM     10  C   UNL     1      -3.538 -39.702  -3.181  0.00  0.00    +0.000 C 
ATOM     11  C   UNL     1      -3.169 -39.020  -4.385  0.00  0.00    +0.000 C 
ATOM     12  C   UNL     1      -3.245 -36.692  -2.026  0.00  0.00    +0.000 C 
ATOM     13  C   UNL     1      -2.909 -37.699  -4.495  0.00  0.00    +0.000 C 
ATOM     14  C   UNL     1      -3.553 -39.023  -2.082  0.00  0.00    +0.000 C 
ATOM     15  C   UNL     1      -3.409 -37.835  -1.333  0.00  0.00    +0.000 C 
ATOM     16  C   UNL     1      -2.293 -35.434  -4.173  0.00  0.00    +0.000 C 
ATOM     17  C   UNL     1      -3.707 -41.139  -3.463  0.00  0.00    +0.000 C 
ATOM     18  C   UNL     1      -2.250 -35.733  -5.549  0.00  0.00    +0.000 C 
ATOM     19  C   UNL     1      -2.463 -37.054  -5.734  0.00  0.00    +0.000 C 
ATOM     20  C   UNL     1      -4.255 -36.100  -2.922  0.00  0.00    +0.000 C 
ATOM     21  C   UNL     1      -3.296 -41.168  -4.937  0.00  0.00    +0.000 C 
ATOM     22  C   UNL     1      -2.751 -37.291  -7.084  0.00  0.00    +0.000 C 
ATOM     23  C   UNL     1      -5.607 -35.622  -2.461  0.00  0.00    +0.000 C 
ATOM     24  C   UNL     1      -6.789 -33.591  -4.608  0.00  0.00    +0.000 C 
ATOM     25  C   UNL     1      -3.258 -35.305  -7.715  0.00  0.00    +0.000 C 
ATOM     26  C   UNL     1      -6.043 -35.618  -0.989  0.00  0.00    +0.000 C 
ATOM     27  C   UNL     1      -4.334 -34.636  -8.179  0.00  0.00    +0.000 C 
ATOM     28  C   UNL     1      -5.123 -35.128  -9.372  0.00  0.00    +0.000 C 
ATOM     29  C   UNL     1      -4.998 -33.688  -7.349  0.00  0.00    +0.000 C 
ATOM     30  C   UNL     1      -5.653 -33.132  -6.508  0.00  0.00    +0.000 C 
ENDROOT
BRANCH  17  31
ATOM     31  O   UNL     1      -2.859 -41.918  -2.636  0.00  0.00    +0.000 OA
ATOM     32  H   UNL     1      -3.040 -42.846  -2.875  0.00  0.00    +0.000 HD
ENDBRANCH  17  31
BRANCH  17  33
ATOM     33  C   UNL     1      -5.109 -41.550  -3.264  0.00  0.00    +0.000 C 
BRANCH  33  34
ATOM     34  O   UNL     1      -6.376 -41.927  -3.108  0.00  0.00    +0.000 OA
ATOM     35  H   UNL     1      -6.990 -41.230  -3.408  0.00  0.00    +0.000 HD
ENDBRANCH  33  34
ENDBRANCH  17  33
BRANCH  24  36
ATOM     36  C   UNL     1      -7.516 -33.152  -3.624  0.00  0.00    +0.000 C 
BRANCH  36  37
ATOM     37  C   UNL     1      -8.334 -32.604  -2.450  0.00  0.00    +0.000 C 
ATOM     38  C   UNL     1      -9.000 -32.163  -1.554  0.00  0.00    +0.000 C 
BRANCH  38  39
ATOM     39  C   UNL     1      -9.869 -31.592  -0.429  0.00  0.00    +0.000 C 
ATOM     40  C   UNL     1     -10.547 -31.131   0.448  0.00  0.00    +0.000 C 
BRANCH  40  41
ATOM     41  C   UNL     1     -11.412 -30.536   1.563  0.00  0.00    +0.000 C 
ATOM     42  C   UNL     1     -12.163 -30.016   2.533  0.00  0.00    +0.000 C 
ENDBRANCH  40  41
ENDBRANCH  38  39
ENDBRANCH  36  37
ENDBRANCH  24  36
BRANCH  15  43
ATOM     43  O   UNL     1      -3.158 -37.879   0.043  0.00  0.00    +0.000 OA
BRANCH  43  45
ATOM     44  O   UNL     1      -0.862 -37.486   0.022  0.00  0.00    +0.000 OA
ATOM     45  C   UNL     1      -1.851 -38.120   0.365  0.00  0.00    +0.000 C 
BRANCH  45  46
ATOM     46  C   UNL     1      -1.716 -39.275   1.199  0.00  0.00    +0.000 C 
ATOM     47  C   UNL     1      -1.600 -40.237   1.902  0.00  0.00    +0.000 C 
ATOM     48  C   UNL     1      -1.457 -41.476   2.788  0.00  0.00    +0.000 C 
ENDBRANCH  45  46
ENDBRANCH  43  45
ENDBRANCH  15  43
TORSDOF 10
ENDMDL
MODEL 3
REMARK VINA RESULT:      -6.0     19.627     23.222
REMARK  Name = Thapsigargin.pdbqt.pdb
REMARK  10 active torsions:
REMARK  status: ('A' for Active; 'I' for Inactive)
REMARK    1  A    between atoms: O_2  and  C_24
REMARK    2  A    between atoms: C_17  and  O_43
REMARK    3  A    between atoms: C_19  and  C_24
REMARK    4  A    between atoms: C_19  and  O_47
REMARK    5  A    between atoms: C_27  and  C_35
REMARK    6  A    between atoms: C_35  and  C_36
REMARK    7  A    between atoms: C_37  and  C_38
REMARK    8  A    between atoms: C_39  and  C_40
REMARK    9  A    between atoms: C_42  and  O_43
REMARK   10  A    between atoms: C_42  and  C_44
REMARK                            x       y       z     vdW  Elec       q    Type
REMARK                         _______ _______ _______ _____ _____    ______ ____
ROOT
ATOM      1  O   UNL     1       2.260 -17.738 -14.692  0.00  0.00    +0.000 OA
ATOM      2  O   UNL     1      -2.874 -18.593 -17.791  0.00  0.00    +0.000 OA
ATOM      3  O   UNL     1      -1.504 -20.679 -18.351  0.00  0.00    +0.000 OA
ATOM      4  O   UNL     1       0.793 -17.473 -19.721  0.00  0.00    +0.000 OA
ATOM      5  O   UNL     1       3.490 -17.871 -12.770  0.00  0.00    +0.000 OA
ATOM      6  O   UNL     1      -2.265 -20.861 -17.102  0.00  0.00    +0.000 OA
ATOM      7  O   UNL     1      -1.848 -21.001 -20.754  0.00  0.00    +0.000 OA
ATOM      8  O   UNL     1       3.015 -18.235 -18.893  0.00  0.00    +0.000 OA
ATOM      9  C   UNL     1      -1.052 -17.188 -16.716  0.00  0.00    +0.000 C 
ATOM     10  C   UNL     1       0.140 -17.726 -13.743  0.00  0.00    +0.000 C 
ATOM     11  C   UNL     1       0.901 -17.617 -14.951  0.00  0.00    +0.000 C 
ATOM     12  C   UNL     1      -2.262 -17.183 -15.845  0.00  0.00    +0.000 C 
ATOM     13  C   UNL     1       0.397 -17.381 -16.182  0.00  0.00    +0.000 C 
ATOM     14  C   UNL     1      -1.132 -17.506 -13.808  0.00  0.00    +0.000 C 
ATOM     15  C   UNL     1      -2.324 -17.202 -14.500  0.00  0.00    +0.000 C 
ATOM     16  C   UNL     1      -0.870 -16.701 -18.065  0.00  0.00    +0.000 C 
ATOM     17  C   UNL     1       1.051 -17.956 -12.607  0.00  0.00    +0.000 C 
ATOM     18  C   UNL     1       0.458 -16.951 -18.467  0.00  0.00    +0.000 C 
ATOM     19  C   UNL     1       1.221 -17.203 -17.382  0.00  0.00    +0.000 C 
ATOM     20  C   UNL     1      -1.976 -18.357 -16.690  0.00  0.00    +0.000 C 
ATOM     21  C   UNL     1       2.398 -17.866 -13.329  0.00  0.00    +0.000 C 
ATOM     22  C   UNL     1       2.434 -17.772 -17.793  0.00  0.00    +0.000 C 
ATOM     23  C   UNL     1      -2.854 -19.579 -16.750  0.00  0.00    +0.000 C 
ATOM     24  C   UNL     1      -2.238 -21.180 -19.432  0.00  0.00    +0.000 C 
ATOM     25  C   UNL     1       1.906 -18.393 -19.776  0.00  0.00    +0.000 C 
ATOM     26  C   UNL     1      -4.191 -19.694 -16.006  0.00  0.00    +0.000 C 
ATOM     27  C   UNL     1       1.774 -19.539 -20.475  0.00  0.00    +0.000 C 
ATOM     28  C   UNL     1       2.884 -20.564 -20.538  0.00  0.00    +0.000 C 
ATOM     29  C   UNL     1       0.479 -20.009 -20.838  0.00  0.00    +0.000 C 
ATOM     30  C   UNL     1      -0.631 -20.470 -20.855  0.00  0.00    +0.000 C 
ENDROOT
BRANCH  17  31
ATOM     31  O   UNL     1       0.885 -16.955 -11.617  0.00  0.00    +0.000 OA
ATOM     32  H   UNL     1       0.000 -16.575 -11.774  0.00  0.00    +0.000 HD
ENDBRANCH  17  31
BRANCH  17  33
ATOM     33  C   UNL     1       0.821 -19.286 -12.014  0.00  0.00    +0.000 C 
BRANCH  33  34
ATOM     34  O   UNL     1       0.595 -20.491 -11.494  0.00  0.00    +0.000 OA
ATOM     35  H   UNL     1       0.022 -21.023 -12.078  0.00  0.00    +0.000 HD
ENDBRANCH  33  34
ENDBRANCH  17  33
BRANCH  24  36
ATOM     36  C   UNL     1      -3.426 -21.681 -19.272  0.00  0.00    +0.000 C 
BRANCH  36  37
ATOM     37  C   UNL     1      -4.827 -22.286 -19.131  0.00  0.00    +0.000 C 
ATOM     38  C   UNL     1      -5.928 -22.757 -19.057  0.00  0.00    +0.000 C 
BRANCH  38  39
ATOM     39  C   UNL     1      -7.335 -23.359 -18.991  0.00  0.00    +0.000 C 
ATOM     40  C   UNL     1      -8.438 -23.833 -18.953  0.00  0.00    +0.000 C 
BRANCH  40  41
ATOM     41  C   UNL     1      -9.843 -24.441 -18.912  0.00  0.00    +0.000 C 
ATOM     42  C   UNL     1     -11.064 -24.973 -18.876  0.00  0.00    +0.000 C 
ENDBRANCH  40  41
ENDBRANCH  38  39
ENDBRANCH  36  37
ENDBRANCH  24  36
BRANCH  15  43
ATOM     43  O   UNL     1      -3.428 -16.666 -13.828  0.00  0.00    +0.000 OA
BRANCH  43  45
ATOM     44  O   UNL     1      -3.532 -14.456 -14.558  0.00  0.00    +0.000 OA
ATOM     45  C   UNL     1      -3.990 -15.585 -14.450  0.00  0.00    +0.000 C 
BRANCH  45  46
ATOM     46  C   UNL     1      -5.270 -15.902 -15.007  0.00  0.00    +0.000 C 
ATOM     47  C   UNL     1      -6.342 -16.162 -15.471  0.00  0.00    +0.000 C 
ATOM     48  C   UNL     1      -7.709 -16.509 -16.065  0.00  0.00    +0.000 C 
ENDBRANCH  45  46
ENDBRANCH  43  45
ENDBRANCH  15  43
TORSDOF 10
ENDMDL
MODEL 4
REMARK VINA RESULT:      -5.5     16.961     19.222
REMARK  Name = Thapsigargin.pdbqt.pdb
REMARK  10 active torsions:
REMARK  status: ('A' for Active; 'I' for Inactive)
REMARK    1  A    between atoms: O_2  and  C_24
REMARK    2  A    between atoms: C_17  and  O_43
REMARK    3  A    between atoms: C_19  and  C_24
REMARK    4  A    between atoms: C_19  and  O_47
REMARK    5  A    between atoms: C_27  and  C_35
REMARK    6  A    between atoms: C_35  and  C_36
REMARK    7  A    between atoms: C_37  and  C_38
REMARK    8  A    between atoms: C_39  and  C_40
REMARK    9  A    between atoms: C_42  and  O_43
REMARK   10  A    between atoms: C_42  and  C_44
REMARK                            x       y       z     vdW  Elec       q    Type
REMARK                         _______ _______ _______ _____ _____    ______ ____
ROOT
ATOM      1  O   UNL     1      -1.604 -17.764   4.328  0.00  0.00    +0.000 OA
ATOM      2  O   UNL     1      -1.635 -17.538  -1.726  0.00  0.00    +0.000 OA
ATOM      3  O   UNL     1      -1.654 -15.070  -1.052  0.00  0.00    +0.000 OA
ATOM      4  O   UNL     1      -5.134 -16.674   0.605  0.00  0.00    +0.000 OA
ATOM      5  O   UNL     1      -0.505 -17.940   6.325  0.00  0.00    +0.000 OA
ATOM      6  O   UNL     1      -0.279 -15.595  -1.110  0.00  0.00    +0.000 OA
ATOM      7  O   UNL     1      -3.275 -14.042  -2.573  0.00  0.00    +0.000 OA
ATOM      8  O   UNL     1      -5.005 -15.595   2.846  0.00  0.00    +0.000 OA
ATOM      9  C   UNL     1      -2.154 -18.577   0.533  0.00  0.00    +0.000 C 
ATOM     10  C   UNL     1      -0.018 -18.784   2.971  0.00  0.00    +0.000 C 
ATOM     11  C   UNL     1      -1.328 -18.209   3.042  0.00  0.00    +0.000 C 
ATOM     12  C   UNL     1      -0.987 -19.275  -0.078  0.00  0.00    +0.000 C 
ATOM     13  C   UNL     1      -2.214 -18.139   2.025  0.00  0.00    +0.000 C 
ATOM     14  C   UNL     1       0.331 -19.357   1.867  0.00  0.00    +0.000 C 
ATOM     15  C   UNL     1       0.114 -19.756   0.531  0.00  0.00    +0.000 C 
ATOM     16  C   UNL     1      -3.521 -18.468   0.076  0.00  0.00    +0.000 C 
ATOM     17  C   UNL     1       0.629 -18.697   4.293  0.00  0.00    +0.000 C 
ATOM     18  C   UNL     1      -4.250 -17.685   0.994  0.00  0.00    +0.000 C 
ATOM     19  C   UNL     1      -3.574 -17.607   2.161  0.00  0.00    +0.000 C 
ATOM     20  C   UNL     1      -1.226 -17.852  -0.380  0.00  0.00    +0.000 C 
ATOM     21  C   UNL     1      -0.518 -18.092   5.107  0.00  0.00    +0.000 C 
ATOM     22  C   UNL     1      -4.116 -16.577   2.940  0.00  0.00    +0.000 C 
ATOM     23  C   UNL     1      -0.360 -17.034  -1.303  0.00  0.00    +0.000 C 
ATOM     24  C   UNL     1      -1.990 -14.478  -2.275  0.00  0.00    +0.000 C 
ATOM     25  C   UNL     1      -5.193 -15.494   1.435  0.00  0.00    +0.000 C 
ATOM     26  C   UNL     1       0.812 -17.621  -2.100  0.00  0.00    +0.000 C 
ATOM     27  C   UNL     1      -5.164 -14.279   0.849  0.00  0.00    +0.000 C 
ATOM     28  C   UNL     1      -5.178 -13.003   1.661  0.00  0.00    +0.000 C 
ATOM     29  C   UNL     1      -4.723 -14.147  -0.499  0.00  0.00    +0.000 C 
ATOM     30  C   UNL     1      -4.083 -14.087  -1.515  0.00  0.00    +0.000 C 
ENDROOT
BRANCH  17  31
ATOM     31  O   UNL     1       1.016 -19.981   4.750  0.00  0.00    +0.000 OA
ATOM     32  H   UNL     1       0.958 -19.941   5.723  0.00  0.00    +0.000 HD
ENDBRANCH  17  31
BRANCH  17  33
ATOM     33  C   UNL     1       1.806 -17.811   4.241  0.00  0.00    +0.000 C 
BRANCH  33  34
ATOM     34  O   UNL     1       2.882 -17.026   4.208  0.00  0.00    +0.000 OA
ATOM     35  H   UNL     1       3.012 -16.645   3.319  0.00  0.00    +0.000 HD
ENDBRANCH  33  34
ENDBRANCH  17  33
BRANCH  24  36
ATOM     36  C   UNL     1      -1.161 -14.471  -3.275  0.00  0.00    +0.000 C 
BRANCH  36  37
ATOM     37  C   UNL     1      -0.145 -14.474  -4.423  0.00  0.00    +0.000 C 
ATOM     38  C   UNL     1       0.622 -14.479  -5.345  0.00  0.00    +0.000 C 
BRANCH  38  39
ATOM     39  C   UNL     1       1.581 -14.486  -6.540  0.00  0.00    +0.000 C 
ATOM     40  C   UNL     1       2.321 -14.494  -7.486  0.00  0.00    +0.000 C 
BRANCH  40  41
ATOM     41  C   UNL     1       3.258 -14.503  -8.697  0.00  0.00    +0.000 C 
ATOM     42  C   UNL     1       4.074 -14.514  -9.750  0.00  0.00    +0.000 C 
ENDBRANCH  40  41
ENDBRANCH  38  39
ENDBRANCH  36  37
ENDBRANCH  24  36
BRANCH  15  43
ATOM     43  O   UNL     1       0.835 -20.816  -0.029  0.00  0.00    +0.000 OA
BRANCH  43  45
ATOM     44  O   UNL     1       2.757 -19.500  -0.011  0.00  0.00    +0.000 OA
ATOM     45  C   UNL     1       2.158 -20.541  -0.243  0.00  0.00    +0.000 C 
BRANCH  45  46
ATOM     46  C   UNL     1       2.845 -21.658  -0.815  0.00  0.00    +0.000 C 
ATOM     47  C   UNL     1       3.425 -22.590  -1.293  0.00  0.00    +0.000 C 
ATOM     48  C   UNL     1       4.153 -23.787  -1.909  0.00  0.00    +0.000 C 
ENDBRANCH  45  46
ENDBRANCH  43  45
ENDBRANCH  15  43
TORSDOF 10
ENDMDL
MODEL 5
REMARK VINA RESULT:      -5.5     22.467     26.725
REMARK  Name = Thapsigargin.pdbqt.pdb
REMARK  10 active torsions:
REMARK  status: ('A' for Active; 'I' for Inactive)
REMARK    1  A    between atoms: O_2  and  C_24
REMARK    2  A    between atoms: C_17  and  O_43
REMARK    3  A    between atoms: C_19  and  C_24
REMARK    4  A    between atoms: C_19  and  O_47
REMARK    5  A    between atoms: C_27  and  C_35
REMARK    6  A    between atoms: C_35  and  C_36
REMARK    7  A    between atoms: C_37  and  C_38
REMARK    8  A    between atoms: C_39  and  C_40
REMARK    9  A    between atoms: C_42  and  O_43
REMARK   10  A    between atoms: C_42  and  C_44
REMARK                            x       y       z     vdW  Elec       q    Type
REMARK                         _______ _______ _______ _____ _____    ______ ____
ROOT
ATOM      1  O   UNL     1      -8.524 -16.565 -20.290  0.00  0.00    +0.000 OA
ATOM      2  O   UNL     1      -7.936 -14.521 -14.618  0.00  0.00    +0.000 OA
ATOM      3  O   UNL     1      -5.561 -14.336 -15.550  0.00  0.00    +0.000 OA
ATOM      4  O   UNL     1      -6.514 -18.393 -15.804  0.00  0.00    +0.000 OA
ATOM      5  O   UNL     1      -9.040 -16.249 -22.494  0.00  0.00    +0.000 OA
ATOM      6  O   UNL     1      -6.353 -13.135 -15.868  0.00  0.00    +0.000 OA
ATOM      7  O   UNL     1      -4.134 -15.147 -13.733  0.00  0.00    +0.000 OA
ATOM      8  O   UNL     1      -5.619 -18.838 -18.085  0.00  0.00    +0.000 OA
ATOM      9  C   UNL     1      -8.980 -15.941 -16.447  0.00  0.00    +0.000 C 
ATOM     10  C   UNL     1      -9.764 -14.819 -19.392  0.00  0.00    +0.000 C 
ATOM     11  C   UNL     1      -8.939 -15.955 -19.114  0.00  0.00    +0.000 C 
ATOM     12  C   UNL     1      -9.865 -14.776 -16.157  0.00  0.00    +0.000 C 
ATOM     13  C   UNL     1      -8.628 -16.421 -17.884  0.00  0.00    +0.000 C 
ATOM     14  C   UNL     1     -10.331 -14.224 -18.394  0.00  0.00    +0.000 C 
ATOM     15  C   UNL     1     -10.596 -14.046 -17.020  0.00  0.00    +0.000 C 
ATOM     16  C   UNL     1      -8.566 -17.034 -15.596  0.00  0.00    +0.000 C 
ATOM     17  C   UNL     1      -9.890 -14.649 -20.851  0.00  0.00    +0.000 C 
ATOM     18  C   UNL     1      -7.706 -17.881 -16.325  0.00  0.00    +0.000 C 
ATOM     19  C   UNL     1      -7.837 -17.634 -17.646  0.00  0.00    +0.000 C 
ATOM     20  C   UNL     1      -8.407 -14.649 -15.974  0.00  0.00    +0.000 C 
ATOM     21  C   UNL     1      -9.113 -15.879 -21.326  0.00  0.00    +0.000 C 
ATOM     22  C   UNL     1      -6.766 -18.218 -18.334  0.00  0.00    +0.000 C 
ATOM     23  C   UNL     1      -7.730 -13.396 -15.483  0.00  0.00    +0.000 C 
ATOM     24  C   UNL     1      -4.841 -14.133 -14.368  0.00  0.00    +0.000 C 
ATOM     25  C   UNL     1      -5.398 -18.521 -16.712  0.00  0.00    +0.000 C 
ATOM     26  C   UNL     1      -8.497 -12.145 -15.034  0.00  0.00    +0.000 C 
ATOM     27  C   UNL     1      -4.182 -18.086 -16.320  0.00  0.00    +0.000 C 
ATOM     28  C   UNL     1      -2.981 -18.151 -17.237  0.00  0.00    +0.000 C 
ATOM     29  C   UNL     1      -4.063 -17.202 -15.210  0.00  0.00    +0.000 C 
ATOM     30  C   UNL     1      -4.076 -16.258 -14.465  0.00  0.00    +0.000 C 
ENDROOT
BRANCH  17  31
ATOM     31  O   UNL     1     -11.252 -14.667 -21.245  0.00  0.00    +0.000 OA
ATOM     32  H   UNL     1     -11.733 -15.084 -20.506  0.00  0.00    +0.000 HD
ENDBRANCH  17  31
BRANCH  17  33
ATOM     33  C   UNL     1      -9.263 -13.388 -21.286  0.00  0.00    +0.000 C 
BRANCH  33  34
ATOM     34  O   UNL     1      -8.675 -12.257 -21.672  0.00  0.00    +0.000 OA
ATOM     35  H   UNL     1      -8.650 -12.188 -22.645  0.00  0.00    +0.000 HD
ENDBRANCH  33  34
ENDBRANCH  17  33
BRANCH  24  36
ATOM     36  C   UNL     1      -4.945 -13.028 -13.692  0.00  0.00    +0.000 C 
BRANCH  36  37
ATOM     37  C   UNL     1      -5.095 -11.750 -12.860  0.00  0.00    +0.000 C 
ATOM     38  C   UNL     1      -5.240 -10.739 -12.230  0.00  0.00    +0.000 C 
BRANCH  38  39
ATOM     39  C   UNL     1      -5.448  -9.442 -11.441  0.00  0.00    +0.000 C 
ATOM     40  C   UNL     1      -5.606  -8.433 -10.811  0.00  0.00    +0.000 C 
BRANCH  40  41
ATOM     41  C   UNL     1      -5.803  -7.149 -10.000  0.00  0.00    +0.000 C 
ATOM     42  C   UNL     1      -5.978  -6.031  -9.296  0.00  0.00    +0.000 C 
ENDBRANCH  40  41
ENDBRANCH  38  39
ENDBRANCH  36  37
ENDBRANCH  24  36
BRANCH  15  43
ATOM     43  O   UNL     1     -11.746 -13.374 -16.591  0.00  0.00    +0.000 OA
BRANCH  43  45
ATOM     44  O   UNL     1     -11.615 -13.173 -14.274  0.00  0.00    +0.000 OA
ATOM     45  C   UNL     1     -12.099 -13.639 -15.296  0.00  0.00    +0.000 C 
BRANCH  45  46
ATOM     46  C   UNL     1     -13.164 -14.592 -15.223  0.00  0.00    +0.000 C 
ATOM     47  C   UNL     1     -14.060 -15.384 -15.165  0.00  0.00    +0.000 C 
ATOM     48  C   UNL     1     -15.197 -16.405 -15.080  0.00  0.00    +0.000 C 
ENDBRANCH  45  46
ENDBRANCH  43  45
ENDBRANCH  15  43
TORSDOF 10
ENDMDL
MODEL 6
REMARK VINA RESULT:      -5.5      3.009      9.684
REMARK  Name = Thapsigargin.pdbqt.pdb
REMARK  10 active torsions:
REMARK  status: ('A' for Active; 'I' for Inactive)
REMARK    1  A    between atoms: O_2  and  C_24
REMARK    2  A    between atoms: C_17  and  O_43
REMARK    3  A    between atoms: C_19  and  C_24
REMARK    4  A    between atoms: C_19  and  O_47
REMARK    5  A    between atoms: C_27  and  C_35
REMARK    6  A    between atoms: C_35  and  C_36
REMARK    7  A    between atoms: C_37  and  C_38
REMARK    8  A    between atoms: C_39  and  C_40
REMARK    9  A    between atoms: C_42  and  O_43
REMARK   10  A    between atoms: C_42  and  C_44
REMARK                            x       y       z     vdW  Elec       q    Type
REMARK                         _______ _______ _______ _____ _____    ______ ____
ROOT
ATOM      1  O   UNL     1      -3.070 -36.105  -8.060  0.00  0.00    +0.000 OA
ATOM      2  O   UNL     1      -5.051 -38.035  -2.671  0.00  0.00    +0.000 OA
ATOM      3  O   UNL     1      -2.611 -37.423  -2.207  0.00  0.00    +0.000 OA
ATOM      4  O   UNL     1      -2.446 -40.406  -5.124  0.00  0.00    +0.000 OA
ATOM      5  O   UNL     1      -2.817 -34.470  -9.638  0.00  0.00    +0.000 OA
ATOM      6  O   UNL     1      -3.489 -36.248  -2.074  0.00  0.00    +0.000 OA
ATOM      7  O   UNL     1      -1.788 -39.248  -0.798  0.00  0.00    +0.000 OA
ATOM      8  O   UNL     1      -0.714 -39.386  -6.594  0.00  0.00    +0.000 OA
ATOM      9  C   UNL     1      -5.009 -37.970  -5.209  0.00  0.00    +0.000 C 
ATOM     10  C   UNL     1      -4.917 -35.232  -6.955  0.00  0.00    +0.000 C 
ATOM     11  C   UNL     1      -4.009 -36.334  -7.063  0.00  0.00    +0.000 C 
ATOM     12  C   UNL     1      -6.182 -37.195  -4.712  0.00  0.00    +0.000 C 
ATOM     13  C   UNL     1      -4.063 -37.475  -6.341  0.00  0.00    +0.000 C 
ATOM     14  C   UNL     1      -5.926 -35.357  -6.155  0.00  0.00    +0.000 C 
ATOM     15  C   UNL     1      -6.701 -36.055  -5.205  0.00  0.00    +0.000 C 
ATOM     16  C   UNL     1      -4.689 -39.373  -5.068  0.00  0.00    +0.000 C 
ATOM     17  C   UNL     1      -4.546 -34.191  -7.930  0.00  0.00    +0.000 C 
ATOM     18  C   UNL     1      -3.455 -39.626  -5.700  0.00  0.00    +0.000 C 
ATOM     19  C   UNL     1      -3.155 -38.610  -6.536  0.00  0.00    +0.000 C 
ATOM     20  C   UNL     1      -4.959 -37.276  -3.891  0.00  0.00    +0.000 C 
ATOM     21  C   UNL     1      -3.389 -34.898  -8.640  0.00  0.00    +0.000 C 
ATOM     22  C   UNL     1      -1.804 -38.692  -6.899  0.00  0.00    +0.000 C 
ATOM     23  C   UNL     1      -4.813 -36.627  -2.540  0.00  0.00    +0.000 C 
ATOM     24  C   UNL     1      -2.432 -38.028  -0.958  0.00  0.00    +0.000 C 
ATOM     25  C   UNL     1      -1.081 -39.996  -5.358  0.00  0.00    +0.000 C 
ATOM     26  C   UNL     1      -5.956 -35.888  -1.832  0.00  0.00    +0.000 C 
ATOM     27  C   UNL     1      -0.223 -39.953  -4.317  0.00  0.00    +0.000 C 
ATOM     28  C   UNL     1       1.208 -39.492  -4.485  0.00  0.00    +0.000 C 
ATOM     29  C   UNL     1      -0.719 -39.951  -2.982  0.00  0.00    +0.000 C 
ATOM     30  C   UNL     1      -1.215 -39.671  -1.924  0.00  0.00    +0.000 C 
ENDROOT
BRANCH  17  31
ATOM     31  O   UNL     1      -5.630 -33.899  -8.794  0.00  0.00    +0.000 OA
ATOM     32  H   UNL     1      -5.685 -32.926  -8.826  0.00  0.00    +0.000 HD
ENDBRANCH  17  31
BRANCH  17  33
ATOM     33  C   UNL     1      -4.113 -32.962  -7.241  0.00  0.00    +0.000 C 
BRANCH  33  34
ATOM     34  O   UNL     1      -3.735 -31.858  -6.599  0.00  0.00    +0.000 OA
ATOM     35  H   UNL     1      -3.529 -32.048  -5.665  0.00  0.00    +0.000 HD
ENDBRANCH  33  34
ENDBRANCH  17  33
BRANCH  24  36
ATOM     36  C   UNL     1      -3.024 -37.574   0.106  0.00  0.00    +0.000 C 
BRANCH  36  37
ATOM     37  C   UNL     1      -3.766 -37.046   1.338  0.00  0.00    +0.000 C 
ATOM     38  C   UNL     1      -4.369 -36.662   2.302  0.00  0.00    +0.000 C 
BRANCH  38  39
ATOM     39  C   UNL     1      -5.153 -36.195   3.533  0.00  0.00    +0.000 C 
ATOM     40  C   UNL     1      -5.758 -35.819   4.499  0.00  0.00    +0.000 C 
BRANCH  40  41
ATOM     41  C   UNL     1      -6.525 -35.331   5.732  0.00  0.00    +0.000 C 
ATOM     42  C   UNL     1      -7.190 -34.905   6.805  0.00  0.00    +0.000 C 
ENDBRANCH  40  41
ENDBRANCH  38  39
ENDBRANCH  36  37
ENDBRANCH  24  36
BRANCH  15  43
ATOM     43  O   UNL     1      -8.050 -35.740  -5.008  0.00  0.00    +0.000 OA
BRANCH  43  45
ATOM     44  O   UNL     1      -8.586 -36.862  -6.977  0.00  0.00    +0.000 OA
ATOM     45  C   UNL     1      -8.883 -36.208  -5.987  0.00  0.00    +0.000 C 
BRANCH  45  46
ATOM     46  C   UNL     1     -10.243 -35.837  -5.746  0.00  0.00    +0.000 C 
ATOM     47  C   UNL     1     -11.380 -35.520  -5.543  0.00  0.00    +0.000 C 
ATOM     48  C   UNL     1     -12.837 -35.130  -5.283  0.00  0.00    +0.000 C 
ENDBRANCH  45  46
ENDBRANCH  43  45
ENDBRANCH  15  43
TORSDOF 10
ENDMDL
MODEL 7
REMARK VINA RESULT:      -5.4     19.155     23.669
REMARK  Name = Thapsigargin.pdbqt.pdb
REMARK  10 active torsions:
REMARK  status: ('A' for Active; 'I' for Inactive)
REMARK    1  A    between atoms: O_2  and  C_24
REMARK    2  A    between atoms: C_17  and  O_43
REMARK    3  A    between atoms: C_19  and  C_24
REMARK    4  A    between atoms: C_19  and  O_47
REMARK    5  A    between atoms: C_27  and  C_35
REMARK    6  A    between atoms: C_35  and  C_36
REMARK    7  A    between atoms: C_37  and  C_38
REMARK    8  A    between atoms: C_39  and  C_40
REMARK    9  A    between atoms: C_42  and  O_43
REMARK   10  A    between atoms: C_42  and  C_44
REMARK                            x       y       z     vdW  Elec       q    Type
REMARK                         _______ _______ _______ _____ _____    ______ ____
ROOT
ATOM      1  O   UNL     1      -1.677 -20.052 -20.228  0.00  0.00    +0.000 OA
ATOM      2  O   UNL     1      -5.975 -18.821 -16.139  0.00  0.00    +0.000 OA
ATOM      3  O   UNL     1      -4.798 -16.570 -16.440  0.00  0.00    +0.000 OA
ATOM      4  O   UNL     1      -1.835 -19.168 -15.060  0.00  0.00    +0.000 OA
ATOM      5  O   UNL     1      -0.977 -20.312 -22.389  0.00  0.00    +0.000 OA
ATOM      6  O   UNL     1      -5.855 -16.757 -17.449  0.00  0.00    +0.000 OA
ATOM      7  O   UNL     1      -4.589 -15.689 -14.165  0.00  0.00    +0.000 OA
ATOM      8  O   UNL     1       0.001 -18.480 -16.597  0.00  0.00    +0.000 OA
ATOM      9  C   UNL     1      -4.297 -20.316 -17.324  0.00  0.00    +0.000 C 
ATOM     10  C   UNL     1      -3.943 -20.448 -20.550  0.00  0.00    +0.000 C 
ATOM     11  C   UNL     1      -2.904 -20.201 -19.596  0.00  0.00    +0.000 C 
ATOM     12  C   UNL     1      -5.671 -20.622 -17.818  0.00  0.00    +0.000 C 
ATOM     13  C   UNL     1      -3.060 -20.160 -18.254  0.00  0.00    +0.000 C 
ATOM     14  C   UNL     1      -5.121 -20.734 -20.101  0.00  0.00    +0.000 C 
ATOM     15  C   UNL     1      -6.059 -20.940 -19.067  0.00  0.00    +0.000 C 
ATOM     16  C   UNL     1      -3.732 -20.440 -16.000  0.00  0.00    +0.000 C 
ATOM     17  C   UNL     1      -3.373 -20.442 -21.910  0.00  0.00    +0.000 C 
ATOM     18  C   UNL     1      -2.391 -20.006 -16.032  0.00  0.00    +0.000 C 
ATOM     19  C   UNL     1      -1.954 -19.977 -17.309  0.00  0.00    +0.000 C 
ATOM     20  C   UNL     1      -5.347 -19.258 -17.360  0.00  0.00    +0.000 C 
ATOM     21  C   UNL     1      -1.892 -20.256 -21.571  0.00  0.00    +0.000 C 
ATOM     22  C   UNL     1      -0.764 -19.240 -17.373  0.00  0.00    +0.000 C 
ATOM     23  C   UNL     1      -6.338 -18.124 -17.339  0.00  0.00    +0.000 C 
ATOM     24  C   UNL     1      -5.307 -15.871 -15.341  0.00  0.00    +0.000 C 
ATOM     25  C   UNL     1      -0.873 -18.187 -15.508  0.00  0.00    +0.000 C 
ATOM     26  C   UNL     1      -7.818 -18.291 -17.706  0.00  0.00    +0.000 C 
ATOM     27  C   UNL     1      -0.982 -16.916 -15.070  0.00  0.00    +0.000 C 
ATOM     28  C   UNL     1      -0.035 -15.831 -15.533  0.00  0.00    +0.000 C 
ATOM     29  C   UNL     1      -2.200 -16.463 -14.487  0.00  0.00    +0.000 C 
ATOM     30  C   UNL     1      -3.324 -16.092 -14.277  0.00  0.00    +0.000 C 
ENDROOT
BRANCH  17  31
ATOM     31  O   UNL     1      -3.640 -21.666 -22.573  0.00  0.00    +0.000 OA
ATOM     32  H   UNL     1      -3.776 -22.323 -21.866  0.00  0.00    +0.000 HD
ENDBRANCH  17  31
BRANCH  17  33
ATOM     33  C   UNL     1      -3.913 -19.320 -22.698  0.00  0.00    +0.000 C 
BRANCH  33  34
ATOM     34  O   UNL     1      -4.378 -18.299 -23.415  0.00  0.00    +0.000 OA
ATOM     35  H   UNL     1      -4.957 -18.610 -24.136  0.00  0.00    +0.000 HD
ENDBRANCH  33  34
ENDBRANCH  17  33
BRANCH  24  36
ATOM     36  C   UNL     1      -6.554 -15.510 -15.285  0.00  0.00    +0.000 C 
BRANCH  36  37
ATOM     37  C   UNL     1      -8.037 -15.132 -15.205  0.00  0.00    +0.000 C 
ATOM     38  C   UNL     1      -9.197 -14.825 -15.178  0.00  0.00    +0.000 C 
BRANCH  38  39
ATOM     39  C   UNL     1     -10.677 -14.428 -15.170  0.00  0.00    +0.000 C 
ATOM     40  C   UNL     1     -11.832 -14.104 -15.158  0.00  0.00    +0.000 C 
BRANCH  40  41
ATOM     41  C   UNL     1     -13.304 -13.682 -15.144  0.00  0.00    +0.000 C 
ATOM     42  C   UNL     1     -14.585 -13.312 -15.131  0.00  0.00    +0.000 C 
ENDBRANCH  40  41
ENDBRANCH  38  39
ENDBRANCH  36  37
ENDBRANCH  24  36
BRANCH  15  43
ATOM     43  O   UNL     1      -7.212 -21.702 -19.285  0.00  0.00    +0.000 OA
BRANCH  43  45
ATOM     44  O   UNL     1      -6.306 -23.589 -20.307  0.00  0.00    +0.000 OA
ATOM     45  C   UNL     1      -6.976 -23.040 -19.444  0.00  0.00    +0.000 C 
BRANCH  45  46
ATOM     46  C   UNL     1      -7.637 -23.816 -18.440  0.00  0.00    +0.000 C 
ATOM     47  C   UNL     1      -8.186 -24.470 -17.601  0.00  0.00    +0.000 C 
ATOM     48  C   UNL     1      -8.900 -25.296 -16.528  0.00  0.00    +0.000 C 
ENDBRANCH  45  46
ENDBRANCH  43  45
ENDBRANCH  15  43
TORSDOF 10
ENDMDL
MODEL 8
REMARK VINA RESULT:      -5.3     18.854     22.651
REMARK  Name = Thapsigargin.pdbqt.pdb
REMARK  10 active torsions:
REMARK  status: ('A' for Active; 'I' for Inactive)
REMARK    1  A    between atoms: O_2  and  C_24
REMARK    2  A    between atoms: C_17  and  O_43
REMARK    3  A    between atoms: C_19  and  C_24
REMARK    4  A    between atoms: C_19  and  O_47
REMARK    5  A    between atoms: C_27  and  C_35
REMARK    6  A    between atoms: C_35  and  C_36
REMARK    7  A    between atoms: C_37  and  C_38
REMARK    8  A    between atoms: C_39  and  C_40
REMARK    9  A    between atoms: C_42  and  O_43
REMARK   10  A    between atoms: C_42  and  C_44
REMARK                            x       y       z     vdW  Elec       q    Type
REMARK                         _______ _______ _______ _____ _____    ______ ____
ROOT
ATOM      1  O   UNL     1      -4.523 -12.789  -0.938  0.00  0.00    +0.000 OA
ATOM      2  O   UNL     1      -4.043 -17.686   2.595  0.00  0.00    +0.000 OA
ATOM      3  O   UNL     1      -1.651 -16.782   2.529  0.00  0.00    +0.000 OA
ATOM      4  O   UNL     1      -2.597 -17.641  -1.446  0.00  0.00    +0.000 OA
ATOM      5  O   UNL     1      -4.997 -10.574  -1.245  0.00  0.00    +0.000 OA
ATOM      6  O   UNL     1      -2.437 -16.131   3.592  0.00  0.00    +0.000 OA
ATOM      7  O   UNL     1      -0.259 -18.777   2.259  0.00  0.00    +0.000 OA
ATOM      8  O   UNL     1      -1.659 -15.588  -2.498  0.00  0.00    +0.000 OA
ATOM      9  C   UNL     1      -5.051 -16.302   0.720  0.00  0.00    +0.000 C 
ATOM     10  C   UNL     1      -5.781 -13.147   0.982  0.00  0.00    +0.000 C 
ATOM     11  C   UNL     1      -4.960 -13.744  -0.029  0.00  0.00    +0.000 C 
ATOM     12  C   UNL     1      -5.942 -16.243   1.915  0.00  0.00    +0.000 C 
ATOM     13  C   UNL     1      -4.672 -15.059  -0.136  0.00  0.00    +0.000 C 
ATOM     14  C   UNL     1      -6.366 -13.932   1.826  0.00  0.00    +0.000 C 
ATOM     15  C   UNL     1      -6.657 -15.199   2.374  0.00  0.00    +0.000 C 
ATOM     16  C   UNL     1      -4.653 -17.428  -0.093  0.00  0.00    +0.000 C 
ATOM     17  C   UNL     1      -5.879 -11.696   0.742  0.00  0.00    +0.000 C 
ATOM     18  C   UNL     1      -3.780 -16.977  -1.103  0.00  0.00    +0.000 C 
ATOM     19  C   UNL     1      -3.886 -15.637  -1.231  0.00  0.00    +0.000 C 
ATOM     20  C   UNL     1      -4.488 -16.410   2.096  0.00  0.00    +0.000 C 
ATOM     21  C   UNL     1      -5.093 -11.593  -0.567  0.00  0.00    +0.000 C 
ATOM     22  C   UNL     1      -2.802 -15.156  -1.977  0.00  0.00    +0.000 C 
ATOM     23  C   UNL     1      -3.822 -16.548   3.440  0.00  0.00    +0.000 C 
ATOM     24  C   UNL     1      -0.954 -17.875   3.055  0.00  0.00    +0.000 C 
ATOM     25  C   UNL     1      -1.464 -16.824  -1.813  0.00  0.00    +0.000 C 
ATOM     26  C   UNL     1      -4.597 -16.621   4.762  0.00  0.00    +0.000 C 
ATOM     27  C   UNL     1      -0.256 -17.102  -1.280  0.00  0.00    +0.000 C 
ATOM     28  C   UNL     1       0.962 -16.260  -1.588  0.00  0.00    +0.000 C 
ATOM     29  C   UNL     1      -0.159 -17.927  -0.123  0.00  0.00    +0.000 C 
ATOM     30  C   UNL     1      -0.186 -18.382   0.989  0.00  0.00    +0.000 C 
ENDROOT
BRANCH  17  31
ATOM     31  O   UNL     1      -7.233 -11.298   0.608  0.00  0.00    +0.000 OA
ATOM     32  H   UNL     1      -7.481 -11.518  -0.310  0.00  0.00    +0.000 HD
ENDBRANCH  17  31
BRANCH  17  33
ATOM     33  C   UNL     1      -5.245 -10.941   1.838  0.00  0.00    +0.000 C 
BRANCH  33  34
ATOM     34  O   UNL     1      -4.659 -10.280   2.834  0.00  0.00    +0.000 OA
ATOM     35  H   UNL     1      -4.362 -10.890   3.535  0.00  0.00    +0.000 HD
ENDBRANCH  33  34
ENDBRANCH  17  33
BRANCH  24  36
ATOM     36  C   UNL     1      -1.071 -18.218   4.302  0.00  0.00    +0.000 C 
BRANCH  36  37
ATOM     37  C   UNL     1      -1.259 -18.618   5.769  0.00  0.00    +0.000 C 
ATOM     38  C   UNL     1      -1.410 -18.896   6.927  0.00  0.00    +0.000 C 
BRANCH  38  39
ATOM     39  C   UNL     1      -1.606 -19.224   8.411  0.00  0.00    +0.000 C 
ATOM     40  C   UNL     1      -1.767 -19.468   9.575  0.00  0.00    +0.000 C 
BRANCH  40  41
ATOM     41  C   UNL     1      -1.979 -19.774  11.061  0.00  0.00    +0.000 C 
ATOM     42  C   UNL     1      -2.167 -20.040  12.353  0.00  0.00    +0.000 C 
ENDBRANCH  40  41
ENDBRANCH  38  39
ENDBRANCH  36  37
ENDBRANCH  24  36
BRANCH  15  43
ATOM     43  O   UNL     1      -7.816 -15.405   3.132  0.00  0.00    +0.000 OA
BRANCH  43  45
ATOM     44  O   UNL     1      -8.601 -17.557   2.712  0.00  0.00    +0.000 OA
ATOM     45  C   UNL     1      -8.667 -16.340   2.610  0.00  0.00    +0.000 C 
BRANCH  45  46
ATOM     46  C   UNL     1      -9.726 -15.733   1.864  0.00  0.00    +0.000 C 
ATOM     47  C   UNL     1     -10.612 -15.219   1.244  0.00  0.00    +0.000 C 
ATOM     48  C   UNL     1     -11.749 -14.577   0.446  0.00  0.00    +0.000 C 
ENDBRANCH  45  46
ENDBRANCH  43  45
ENDBRANCH  15  43
TORSDOF 10
ENDMDL
MODEL 9
REMARK VINA RESULT:      -5.3      3.217      9.235
REMARK  Name = Thapsigargin.pdbqt.pdb
REMARK  10 active torsions:
REMARK  status: ('A' for Active; 'I' for Inactive)
REMARK    1  A    between atoms: O_2  and  C_24
REMARK    2  A    between atoms: C_17  and  O_43
REMARK    3  A    between atoms: C_19  and  C_24
REMARK    4  A    between atoms: C_19  and  O_47
REMARK    5  A    between atoms: C_27  and  C_35
REMARK    6  A    between atoms: C_35  and  C_36
REMARK    7  A    between atoms: C_37  and  C_38
REMARK    8  A    between atoms: C_39  and  C_40
REMARK    9  A    between atoms: C_42  and  O_43
REMARK   10  A    between atoms: C_42  and  C_44
REMARK                            x       y       z     vdW  Elec       q    Type
REMARK                         _______ _______ _______ _____ _____    ______ ____
ROOT
ATOM      1  O   UNL     1      -3.844 -36.416  -5.604  0.00  0.00    +0.000 OA
ATOM      2  O   UNL     1      -8.483 -36.013  -1.729  0.00  0.00    +0.000 OA
ATOM      3  O   UNL     1      -6.580 -34.847  -0.479  0.00  0.00    +0.000 OA
ATOM      4  O   UNL     1      -5.232 -38.748  -1.115  0.00  0.00    +0.000 OA
ATOM      5  O   UNL     1      -2.661 -35.653  -7.405  0.00  0.00    +0.000 OA
ATOM      6  O   UNL     1      -7.284 -33.909  -1.371  0.00  0.00    +0.000 OA
ATOM      7  O   UNL     1      -6.777 -35.667   1.820  0.00  0.00    +0.000 OA
ATOM      8  O   UNL     1      -2.902 -38.220  -1.819  0.00  0.00    +0.000 OA
ATOM      9  C   UNL     1      -7.140 -37.095  -3.593  0.00  0.00    +0.000 C 
ATOM     10  C   UNL     1      -5.902 -35.471  -6.119  0.00  0.00    +0.000 C 
ATOM     11  C   UNL     1      -5.178 -36.328  -5.229  0.00  0.00    +0.000 C 
ATOM     12  C   UNL     1      -8.320 -36.394  -4.175  0.00  0.00    +0.000 C 
ATOM     13  C   UNL     1      -5.705 -37.009  -4.188  0.00  0.00    +0.000 C 
ATOM     14  C   UNL     1      -7.184 -35.392  -5.973  0.00  0.00    +0.000 C 
ATOM     15  C   UNL     1      -8.400 -35.708  -5.331  0.00  0.00    +0.000 C 
ATOM     16  C   UNL     1      -7.075 -38.204  -2.669  0.00  0.00    +0.000 C 
ATOM     17  C   UNL     1      -4.984 -34.936  -7.141  0.00  0.00    +0.000 C 
ATOM     18  C   UNL     1      -5.722 -38.499  -2.402  0.00  0.00    +0.000 C 
ATOM     19  C   UNL     1      -4.939 -37.935  -3.346  0.00  0.00    +0.000 C 
ATOM     20  C   UNL     1      -7.706 -35.883  -2.935  0.00  0.00    +0.000 C 
ATOM     21  C   UNL     1      -3.702 -35.676  -6.755  0.00  0.00    +0.000 C 
ATOM     22  C   UNL     1      -3.609 -37.938  -2.907  0.00  0.00    +0.000 C 
ATOM     23  C   UNL     1      -8.211 -34.680  -2.184  0.00  0.00    +0.000 C 
ATOM     24  C   UNL     1      -7.126 -34.782   0.807  0.00  0.00    +0.000 C 
ATOM     25  C   UNL     1      -3.908 -38.260  -0.808  0.00  0.00    +0.000 C 
ATOM     26  C   UNL     1      -9.478 -33.910  -2.579  0.00  0.00    +0.000 C 
ATOM     27  C   UNL     1      -3.705 -37.604   0.354  0.00  0.00    +0.000 C 
ATOM     28  C   UNL     1      -2.354 -37.030   0.718  0.00  0.00    +0.000 C 
ATOM     29  C   UNL     1      -4.812 -37.085   1.084  0.00  0.00    +0.000 C 
ATOM     30  C   UNL     1      -5.752 -36.447   1.479  0.00  0.00    +0.000 C 
ENDROOT
BRANCH  17  31
ATOM     31  O   UNL     1      -5.439 -35.257  -8.444  0.00  0.00    +0.000 OA
ATOM     32  H   UNL     1      -5.836 -36.145  -8.372  0.00  0.00    +0.000 HD
ENDBRANCH  17  31
BRANCH  17  33
ATOM     33  C   UNL     1      -4.849 -33.474  -7.008  0.00  0.00    +0.000 C 
BRANCH  33  34
ATOM     34  O   UNL     1      -4.703 -32.155  -6.891  0.00  0.00    +0.000 OA
ATOM     35  H   UNL     1      -3.866 -31.858  -7.294  0.00  0.00    +0.000 HD
ENDBRANCH  33  34
ENDBRANCH  17  33
BRANCH  24  36
ATOM     36  C   UNL     1      -8.133 -34.006   1.078  0.00  0.00    +0.000 C 
BRANCH  36  37
ATOM     37  C   UNL     1      -9.291 -33.069   1.433  0.00  0.00    +0.000 C 
ATOM     38  C   UNL     1     -10.200 -32.349   1.744  0.00  0.00    +0.000 C 
BRANCH  38  39
ATOM     39  C   UNL     1     -11.359 -31.440   2.167  0.00  0.00    +0.000 C 
ATOM     40  C   UNL     1     -12.273 -30.730   2.485  0.00  0.00    +0.000 C 
BRANCH  40  41
ATOM     41  C   UNL     1     -13.443 -29.827   2.885  0.00  0.00    +0.000 C 
ATOM     42  C   UNL     1     -14.463 -29.042   3.230  0.00  0.00    +0.000 C 
ENDBRANCH  40  41
ENDBRANCH  38  39
ENDBRANCH  36  37
ENDBRANCH  24  36
BRANCH  15  43
ATOM     43  O   UNL     1      -9.622 -35.575  -6.000  0.00  0.00    +0.000 OA
BRANCH  43  45
ATOM     44  O   UNL     1     -10.374 -37.779  -5.973  0.00  0.00    +0.000 OA
ATOM     45  C   UNL     1     -10.510 -36.585  -5.748  0.00  0.00    +0.000 C 
BRANCH  45  46
ATOM     46  C   UNL     1     -11.716 -36.092  -5.158  0.00  0.00    +0.000 C 
ATOM     47  C   UNL     1     -12.726 -35.684  -4.659  0.00  0.00    +0.000 C 
ATOM     48  C   UNL     1     -14.019 -35.155  -4.035  0.00  0.00    +0.000 C 
ENDBRANCH  45  46
ENDBRANCH  43  45
ENDBRANCH  15  43
TORSDOF 10
ENDMDL
