MODEL 1
REMARK VINA RESULT:      -4.0      0.000      0.000
REMARK  Name = Thioguanosine.pdbqt.pdb
REMARK  5 active torsions:
REMARK  status: ('A' for Active; 'I' for Inactive)
REMARK    1  A    between atoms: N_2  and  C1*_12
REMARK    2  A    between atoms: C4*_14  and  C5*_17
REMARK    3  A    between atoms: C3*_15  and  O3*_20
REMARK    4  A    between atoms: C2*_16  and  O2*_22
REMARK    5  A    between atoms: C5*_17  and  O5*_18
REMARK                            x       y       z     vdW  Elec       q    Type
REMARK                         _______ _______ _______ _____ _____    ______ ____
ROOT
ATOM      1  S   UNL     1     -19.987 -12.059  -2.437  0.00  0.00    +0.000 S 
ATOM      2  N   UNL     1     -17.357 -16.156  -1.898  0.00  0.00    +0.000 N 
ATOM      3  N   UNL     1     -16.956 -14.934  -3.997  0.00  0.00    +0.000 N 
ATOM      4  N   UNL     1     -18.873 -14.704  -1.048  0.00  0.00    +0.000 NA
ATOM      5  N   UNL     1     -18.240 -12.960  -4.328  0.00  0.00    +0.000 NA
ATOM      6  C   UNL     1     -17.533 -15.136  -2.798  0.00  0.00    +0.000 A 
ATOM      7  C   UNL     1     -18.192 -15.815  -0.845  0.00  0.00    +0.000 A 
ATOM      8  C   UNL     1     -18.467 -14.272  -2.287  0.00  0.00    +0.000 A 
ATOM      9  C   UNL     1     -18.856 -13.106  -3.084  0.00  0.00    +0.000 A 
ATOM     10  C   UNL     1     -17.356 -13.836  -4.708  0.00  0.00    +0.000 A 
ATOM     11  H   UNL     1     -16.291 -15.586  -4.406  0.00  0.00    +0.000 HD
ATOM     12  N   UNL     1     -16.739 -13.714  -5.909  0.00  0.00    +0.000 N 
ATOM     13  H   UNL     1     -15.735 -13.834  -5.876  0.00  0.00    +0.000 HD
ATOM     14  H   UNL     1     -16.979 -12.826  -6.343  0.00  0.00    +0.000 HD
ENDROOT
BRANCH   2  15
ATOM     15  C1* UNL     1     -16.574 -17.292  -1.961  0.00  0.00    +0.000 A 
ATOM     16  O4* UNL     1     -15.711 -17.665  -0.903  0.00  0.00    +0.000 OA
ATOM     17  C4* UNL     1     -15.035 -18.847  -1.250  0.00  0.00    +0.000 A 
ATOM     18  C3* UNL     1     -15.478 -19.248  -2.555  0.00  0.00    +0.000 A 
ATOM     19  C2* UNL     1     -16.443 -18.288  -2.995  0.00  0.00    +0.000 A 
BRANCH  18  20
ATOM     20  O3* UNL     1     -14.676 -19.887  -3.462  0.00  0.00    +0.000 OA
ATOM     21  H3* UNL     1     -14.703 -20.854  -3.346  0.00  0.00    +0.000 HD
ENDBRANCH  18  20
BRANCH  19  22
ATOM     22  O2* UNL     1     -16.592 -18.006  -4.326  0.00  0.00    +0.000 OA
ATOM     23  H2* UNL     1     -16.763 -18.836  -4.815  0.00  0.00    +0.000 HD
ENDBRANCH  19  22
BRANCH  17  24
ATOM     24  C5* UNL     1     -13.933 -19.336  -0.526  0.00  0.00    +0.000 C 
BRANCH  24  25
ATOM     25  O5* UNL     1     -12.880 -19.799   0.139  0.00  0.00    +0.000 OA
ATOM     26  H5* UNL     1     -13.091 -19.908   1.083  0.00  0.00    +0.000 HD
ENDBRANCH  24  25
ENDBRANCH  17  24
ENDBRANCH   2  15
TORSDOF 5
ENDMDL
MODEL 2
REMARK VINA RESULT:      -4.0     18.895     20.472
REMARK  Name = Thioguanosine.pdbqt.pdb
REMARK  5 active torsions:
REMARK  status: ('A' for Active; 'I' for Inactive)
REMARK    1  A    between atoms: N_2  and  C1*_12
REMARK    2  A    between atoms: C4*_14  and  C5*_17
REMARK    3  A    between atoms: C3*_15  and  O3*_20
REMARK    4  A    between atoms: C2*_16  and  O2*_22
REMARK    5  A    between atoms: C5*_17  and  O5*_18
REMARK                            x       y       z     vdW  Elec       q    Type
REMARK                         _______ _______ _______ _____ _____    ______ ____
ROOT
ATOM      1  S   UNL     1       3.118 -20.135 -14.569  0.00  0.00    +0.000 S 
ATOM      2  N   UNL     1      -1.332 -18.258 -15.389  0.00  0.00    +0.000 N 
ATOM      3  N   UNL     1      -0.142 -17.302 -13.458  0.00  0.00    +0.000 N 
ATOM      4  N   UNL     1       0.310 -19.686 -16.014  0.00  0.00    +0.000 NA
ATOM      5  N   UNL     1       2.006 -18.209 -12.990  0.00  0.00    +0.000 NA
ATOM      6  C   UNL     1      -0.280 -18.116 -14.520  0.00  0.00    +0.000 A 
ATOM      7  C   UNL     1      -0.892 -19.219 -16.286  0.00  0.00    +0.000 A 
ATOM      8  C   UNL     1       0.703 -18.998 -14.892  0.00  0.00    +0.000 A 
ATOM      9  C   UNL     1       1.928 -19.062 -14.093  0.00  0.00    +0.000 A 
ATOM     10  C   UNL     1       1.016 -17.401 -12.737  0.00  0.00    +0.000 A 
ATOM     11  H   UNL     1      -0.877 -16.671 -13.148  0.00  0.00    +0.000 HD
ATOM     12  N   UNL     1       1.069 -16.560 -11.677  0.00  0.00    +0.000 N 
ATOM     13  H   UNL     1       0.802 -15.607 -11.887  0.00  0.00    +0.000 HD
ATOM     14  H   UNL     1       1.992 -16.586 -11.248  0.00  0.00    +0.000 HD
ENDROOT
BRANCH   2  15
ATOM     15  C1* UNL     1      -2.570 -17.646 -15.417  0.00  0.00    +0.000 A 
ATOM     16  O4* UNL     1      -2.761 -16.322 -14.954  0.00  0.00    +0.000 OA
ATOM     17  C4* UNL     1      -4.115 -15.973 -15.091  0.00  0.00    +0.000 A 
ATOM     18  C3* UNL     1      -4.809 -17.092 -15.662  0.00  0.00    +0.000 A 
ATOM     19  C2* UNL     1      -3.849 -18.130 -15.875  0.00  0.00    +0.000 A 
BRANCH  18  20
ATOM     20  O3* UNL     1      -6.110 -17.404 -15.369  0.00  0.00    +0.000 OA
ATOM     21  H3* UNL     1      -6.701 -16.640 -15.506  0.00  0.00    +0.000 HD
ENDBRANCH  18  20
BRANCH  19  22
ATOM     22  O2* UNL     1      -4.216 -19.447 -15.808  0.00  0.00    +0.000 OA
ATOM     23  H2* UNL     1      -4.492 -19.751 -16.697  0.00  0.00    +0.000 HD
ENDBRANCH  19  22
BRANCH  17  24
ATOM     24  C5* UNL     1      -4.670 -14.826 -14.496  0.00  0.00    +0.000 C 
BRANCH  24  25
ATOM     25  O5* UNL     1      -5.212 -13.743 -13.949  0.00  0.00    +0.000 OA
ATOM     26  H5* UNL     1      -5.295 -13.031 -14.608  0.00  0.00    +0.000 HD
ENDBRANCH  24  25
ENDBRANCH  17  24
ENDBRANCH   2  15
TORSDOF 5
ENDMDL
MODEL 3
REMARK VINA RESULT:      -4.0     20.244     21.890
REMARK  Name = Thioguanosine.pdbqt.pdb
REMARK  5 active torsions:
REMARK  status: ('A' for Active; 'I' for Inactive)
REMARK    1  A    between atoms: N_2  and  C1*_12
REMARK    2  A    between atoms: C4*_14  and  C5*_17
REMARK    3  A    between atoms: C3*_15  and  O3*_20
REMARK    4  A    between atoms: C2*_16  and  O2*_22
REMARK    5  A    between atoms: C5*_17  and  O5*_18
REMARK                            x       y       z     vdW  Elec       q    Type
REMARK                         _______ _______ _______ _____ _____    ______ ____
ROOT
ATOM      1  S   UNL     1     -11.433 -36.745  -3.818  0.00  0.00    +0.000 S 
ATOM      2  N   UNL     1      -7.197 -34.426  -4.641  0.00  0.00    +0.000 N 
ATOM      3  N   UNL     1      -7.562 -36.438  -6.012  0.00  0.00    +0.000 N 
ATOM      4  N   UNL     1      -9.167 -34.520  -3.528  0.00  0.00    +0.000 NA
ATOM      5  N   UNL     1      -9.585 -37.626  -5.621  0.00  0.00    +0.000 NA
ATOM      6  C   UNL     1      -7.894 -35.522  -5.084  0.00  0.00    +0.000 A 
ATOM      7  C   UNL     1      -8.045 -33.852  -3.706  0.00  0.00    +0.000 A 
ATOM      8  C   UNL     1      -9.077 -35.584  -4.392  0.00  0.00    +0.000 A 
ATOM      9  C   UNL     1      -9.992 -36.694  -4.664  0.00  0.00    +0.000 A 
ATOM     10  C   UNL     1      -8.445 -37.460  -6.228  0.00  0.00    +0.000 A 
ATOM     11  H   UNL     1      -6.673 -36.426  -6.506  0.00  0.00    +0.000 HD
ATOM     12  N   UNL     1      -8.030 -38.347  -7.164  0.00  0.00    +0.000 N 
ATOM     13  H   UNL     1      -7.684 -37.923  -8.015  0.00  0.00    +0.000 HD
ATOM     14  H   UNL     1      -8.768 -39.015  -7.373  0.00  0.00    +0.000 HD
ENDROOT
BRANCH   2  15
ATOM     15  C1* UNL     1      -5.943 -33.956  -4.978  0.00  0.00    +0.000 A 
ATOM     16  O4* UNL     1      -5.730 -33.141  -6.115  0.00  0.00    +0.000 OA
ATOM     17  C4* UNL     1      -4.364 -32.829  -6.213  0.00  0.00    +0.000 A 
ATOM     18  C3* UNL     1      -3.683 -33.450  -5.112  0.00  0.00    +0.000 A 
ATOM     19  C2* UNL     1      -4.665 -34.142  -4.336  0.00  0.00    +0.000 A 
BRANCH  18  20
ATOM     20  O3* UNL     1      -2.401 -33.923  -5.186  0.00  0.00    +0.000 OA
ATOM     21  H3* UNL     1      -2.282 -34.519  -5.949  0.00  0.00    +0.000 HD
ENDBRANCH  18  20
BRANCH  19  22
ATOM     22  O2* UNL     1      -4.336 -35.275  -3.643  0.00  0.00    +0.000 OA
ATOM     23  H2* UNL     1      -3.423 -35.192  -3.301  0.00  0.00    +0.000 HD
ENDBRANCH  19  22
BRANCH  17  24
ATOM     24  C5* UNL     1      -3.795 -32.249  -7.362  0.00  0.00    +0.000 C 
BRANCH  24  25
ATOM     25  O5* UNL     1      -3.237 -31.701  -8.436  0.00  0.00    +0.000 OA
ATOM     26  H5* UNL     1      -2.397 -32.144  -8.649  0.00  0.00    +0.000 HD
ENDBRANCH  24  25
ENDBRANCH  17  24
ENDBRANCH   2  15
TORSDOF 5
ENDMDL
MODEL 4
REMARK VINA RESULT:      -4.0     26.540     28.532
REMARK  Name = Thioguanosine.pdbqt.pdb
REMARK  5 active torsions:
REMARK  status: ('A' for Active; 'I' for Inactive)
REMARK    1  A    between atoms: N_2  and  C1*_12
REMARK    2  A    between atoms: C4*_14  and  C5*_17
REMARK    3  A    between atoms: C3*_15  and  O3*_20
REMARK    4  A    between atoms: C2*_16  and  O2*_22
REMARK    5  A    between atoms: C5*_17  and  O5*_18
REMARK                            x       y       z     vdW  Elec       q    Type
REMARK                         _______ _______ _______ _____ _____    ______ ____
ROOT
ATOM      1  S   UNL     1       5.911 -38.139   3.453  0.00  0.00    +0.000 S 
ATOM      2  N   UNL     1       5.129 -34.091   0.807  0.00  0.00    +0.000 N 
ATOM      3  N   UNL     1       4.157 -34.057   3.069  0.00  0.00    +0.000 N 
ATOM      4  N   UNL     1       6.068 -36.145   0.969  0.00  0.00    +0.000 NA
ATOM      5  N   UNL     1       4.471 -36.016   4.380  0.00  0.00    +0.000 NA
ATOM      6  C   UNL     1       4.850 -34.599   2.051  0.00  0.00    +0.000 A 
ATOM      7  C   UNL     1       5.893 -35.082   0.210  0.00  0.00    +0.000 A 
ATOM      8  C   UNL     1       5.405 -35.851   2.135  0.00  0.00    +0.000 A 
ATOM      9  C   UNL     1       5.217 -36.621   3.366  0.00  0.00    +0.000 A 
ATOM     10  C   UNL     1       4.002 -34.816   4.197  0.00  0.00    +0.000 A 
ATOM     11  H   UNL     1       3.708 -33.146   3.007  0.00  0.00    +0.000 HD
ATOM     12  N   UNL     1       3.280 -34.204   5.166  0.00  0.00    +0.000 N 
ATOM     13  H   UNL     1       3.558 -33.250   5.354  0.00  0.00    +0.000 HD
ATOM     14  H   UNL     1       3.294 -34.756   6.021  0.00  0.00    +0.000 HD
ENDROOT
BRANCH   2  15
ATOM     15  C1* UNL     1       4.756 -32.902   0.212  0.00  0.00    +0.000 A 
ATOM     16  O4* UNL     1       5.708 -32.008  -0.334  0.00  0.00    +0.000 OA
ATOM     17  C4* UNL     1       5.044 -30.885  -0.854  0.00  0.00    +0.000 A 
ATOM     18  C3* UNL     1       3.635 -31.061  -0.646  0.00  0.00    +0.000 A 
ATOM     19  C2* UNL     1       3.452 -32.320   0.008  0.00  0.00    +0.000 A 
BRANCH  18  20
ATOM     20  O3* UNL     1       2.771 -30.026  -0.407  0.00  0.00    +0.000 OA
ATOM     21  H3* UNL     1       1.926 -30.343  -0.037  0.00  0.00    +0.000 HD
ENDBRANCH  18  20
BRANCH  19  22
ATOM     22  O2* UNL     1       2.405 -32.516   0.866  0.00  0.00    +0.000 OA
ATOM     23  H2* UNL     1       1.739 -31.812   0.730  0.00  0.00    +0.000 HD
ENDBRANCH  19  22
BRANCH  17  24
ATOM     24  C5* UNL     1       5.719 -29.711  -1.239  0.00  0.00    +0.000 C 
BRANCH  24  25
ATOM     25  O5* UNL     1       6.375 -28.615  -1.603  0.00  0.00    +0.000 OA
ATOM     26  H5* UNL     1       6.152 -28.370  -2.519  0.00  0.00    +0.000 HD
ENDBRANCH  24  25
ENDBRANCH  17  24
ENDBRANCH   2  15
TORSDOF 5
ENDMDL
MODEL 5
REMARK VINA RESULT:      -4.0     26.051     26.786
REMARK  Name = Thioguanosine.pdbqt.pdb
REMARK  5 active torsions:
REMARK  status: ('A' for Active; 'I' for Inactive)
REMARK    1  A    between atoms: N_2  and  C1*_12
REMARK    2  A    between atoms: C4*_14  and  C5*_17
REMARK    3  A    between atoms: C3*_15  and  O3*_20
REMARK    4  A    between atoms: C2*_16  and  O2*_22
REMARK    5  A    between atoms: C5*_17  and  O5*_18
REMARK                            x       y       z     vdW  Elec       q    Type
REMARK                         _______ _______ _______ _____ _____    ______ ____
ROOT
ATOM      1  S   UNL     1       8.157 -26.851   1.473  0.00  0.00    +0.000 S 
ATOM      2  N   UNL     1       5.133 -30.705   1.482  0.00  0.00    +0.000 N 
ATOM      3  N   UNL     1       4.940 -29.229   3.443  0.00  0.00    +0.000 N 
ATOM      4  N   UNL     1       6.740 -29.509   0.426  0.00  0.00    +0.000 NA
ATOM      5  N   UNL     1       6.417 -27.367   3.509  0.00  0.00    +0.000 NA
ATOM      6  C   UNL     1       5.443 -29.615   2.256  0.00  0.00    +0.000 A 
ATOM      7  C   UNL     1       5.950 -30.563   0.371  0.00  0.00    +0.000 A 
ATOM      8  C   UNL     1       6.431 -28.907   1.621  0.00  0.00    +0.000 A 
ATOM      9  C   UNL     1       6.962 -27.706   2.269  0.00  0.00    +0.000 A 
ATOM     10  C   UNL     1       5.471 -28.105   4.014  0.00  0.00    +0.000 A 
ATOM     11  H   UNL     1       4.235 -29.765   3.944  0.00  0.00    +0.000 HD
ATOM     12  N   UNL     1       4.922 -27.795   5.212  0.00  0.00    +0.000 N 
ATOM     13  H   UNL     1       3.911 -27.818   5.227  0.00  0.00    +0.000 HD
ATOM     14  H   UNL     1       5.263 -26.892   5.536  0.00  0.00    +0.000 HD
ENDROOT
BRANCH   2  15
ATOM     15  C1* UNL     1       4.250 -31.745   1.697  0.00  0.00    +0.000 A 
ATOM     16  O4* UNL     1       4.290 -32.528   2.876  0.00  0.00    +0.000 OA
ATOM     17  C4* UNL     1       3.291 -33.513   2.811  0.00  0.00    +0.000 A 
ATOM     18  C3* UNL     1       2.589 -33.358   1.569  0.00  0.00    +0.000 A 
ATOM     19  C2* UNL     1       3.176 -32.252   0.879  0.00  0.00    +0.000 A 
BRANCH  18  20
ATOM     20  O3* UNL     1       2.053 -34.405   0.868  0.00  0.00    +0.000 OA
ATOM     21  H3* UNL     1       2.321 -34.383  -0.069  0.00  0.00    +0.000 HD
ENDBRANCH  18  20
BRANCH  19  22
ATOM     22  O2* UNL     1       3.198 -32.213  -0.488  0.00  0.00    +0.000 OA
ATOM     23  H2* UNL     1       2.929 -33.085  -0.842  0.00  0.00    +0.000 HD
ENDBRANCH  19  22
BRANCH  17  24
ATOM     24  C5* UNL     1       3.232 -34.598   3.706  0.00  0.00    +0.000 C 
BRANCH  24  25
ATOM     25  O5* UNL     1       3.172 -35.607   4.568  0.00  0.00    +0.000 OA
ATOM     26  H5* UNL     1       3.644 -35.385   5.390  0.00  0.00    +0.000 HD
ENDBRANCH  24  25
ENDBRANCH  17  24
ENDBRANCH   2  15
TORSDOF 5
ENDMDL
MODEL 6
REMARK VINA RESULT:      -3.9     18.904     20.498
REMARK  Name = Thioguanosine.pdbqt.pdb
REMARK  5 active torsions:
REMARK  status: ('A' for Active; 'I' for Inactive)
REMARK    1  A    between atoms: N_2  and  C1*_12
REMARK    2  A    between atoms: C4*_14  and  C5*_17
REMARK    3  A    between atoms: C3*_15  and  O3*_20
REMARK    4  A    between atoms: C2*_16  and  O2*_22
REMARK    5  A    between atoms: C5*_17  and  O5*_18
REMARK                            x       y       z     vdW  Elec       q    Type
REMARK                         _______ _______ _______ _____ _____    ______ ____
ROOT
ATOM      1  S   UNL     1       3.116 -20.076 -14.525  0.00  0.00    +0.000 S 
ATOM      2  N   UNL     1      -1.422 -18.361 -15.203  0.00  0.00    +0.000 N 
ATOM      3  N   UNL     1      -0.155 -17.261 -13.401  0.00  0.00    +0.000 N 
ATOM      4  N   UNL     1       0.223 -19.783 -15.834  0.00  0.00    +0.000 NA
ATOM      5  N   UNL     1       2.039 -18.086 -13.001  0.00  0.00    +0.000 NA
ATOM      6  C   UNL     1      -0.328 -18.141 -14.404  0.00  0.00    +0.000 A 
ATOM      7  C   UNL     1      -1.005 -19.363 -16.066  0.00  0.00    +0.000 A 
ATOM      8  C   UNL     1       0.657 -19.020 -14.778  0.00  0.00    +0.000 A 
ATOM      9  C   UNL     1       1.925 -19.006 -14.046  0.00  0.00    +0.000 A 
ATOM     10  C   UNL     1       1.043 -17.290 -12.742  0.00  0.00    +0.000 A 
ATOM     11  H   UNL     1      -0.890 -16.631 -13.087  0.00  0.00    +0.000 HD
ATOM     12  N   UNL     1       1.130 -16.385 -11.737  0.00  0.00    +0.000 N 
ATOM     13  H   UNL     1       0.826 -15.453 -11.987  0.00  0.00    +0.000 HD
ATOM     14  H   UNL     1       2.075 -16.363 -11.360  0.00  0.00    +0.000 HD
ENDROOT
BRANCH   2  15
ATOM     15  C1* UNL     1      -2.676 -17.781 -15.198  0.00  0.00    +0.000 A 
ATOM     16  O4* UNL     1      -3.820 -18.469 -15.669  0.00  0.00    +0.000 OA
ATOM     17  C4* UNL     1      -4.943 -17.633 -15.556  0.00  0.00    +0.000 A 
ATOM     18  C3* UNL     1      -4.516 -16.384 -14.994  0.00  0.00    +0.000 A 
ATOM     19  C2* UNL     1      -3.108 -16.477 -14.761  0.00  0.00    +0.000 A 
BRANCH  18  20
ATOM     20  O3* UNL     1      -5.086 -15.180 -15.309  0.00  0.00    +0.000 OA
ATOM     21  H3* UNL     1      -5.676 -14.866 -14.598  0.00  0.00    +0.000 HD
ENDBRANCH  18  20
BRANCH  19  22
ATOM     22  O2* UNL     1      -2.313 -15.366 -14.830  0.00  0.00    +0.000 OA
ATOM     23  H2* UNL     1      -1.390 -15.639 -15.007  0.00  0.00    +0.000 HD
ENDBRANCH  19  22
BRANCH  17  24
ATOM     24  C5* UNL     1      -6.177 -17.928 -16.164  0.00  0.00    +0.000 C 
BRANCH  24  25
ATOM     25  O5* UNL     1      -7.351 -18.189 -16.729  0.00  0.00    +0.000 OA
ATOM     26  H5* UNL     1      -7.320 -19.034 -17.211  0.00  0.00    +0.000 HD
ENDBRANCH  24  25
ENDBRANCH  17  24
ENDBRANCH   2  15
TORSDOF 5
ENDMDL
MODEL 7
REMARK VINA RESULT:      -3.8     17.943     19.232
REMARK  Name = Thioguanosine.pdbqt.pdb
REMARK  5 active torsions:
REMARK  status: ('A' for Active; 'I' for Inactive)
REMARK    1  A    between atoms: N_2  and  C1*_12
REMARK    2  A    between atoms: C4*_14  and  C5*_17
REMARK    3  A    between atoms: C3*_15  and  O3*_20
REMARK    4  A    between atoms: C2*_16  and  O2*_22
REMARK    5  A    between atoms: C5*_17  and  O5*_18
REMARK                            x       y       z     vdW  Elec       q    Type
REMARK                         _______ _______ _______ _____ _____    ______ ____
ROOT
ATOM      1  S   UNL     1      -7.258 -17.149 -17.628  0.00  0.00    +0.000 S 
ATOM      2  N   UNL     1      -2.911 -18.199 -15.629  0.00  0.00    +0.000 N 
ATOM      3  N   UNL     1      -3.947 -16.115 -14.826  0.00  0.00    +0.000 N 
ATOM      4  N   UNL     1      -4.585 -18.784 -17.037  0.00  0.00    +0.000 NA
ATOM      5  N   UNL     1      -6.039 -15.536 -15.797  0.00  0.00    +0.000 NA
ATOM      6  C   UNL     1      -3.889 -17.238 -15.564  0.00  0.00    +0.000 A 
ATOM      7  C   UNL     1      -3.414 -19.121 -16.534  0.00  0.00    +0.000 A 
ATOM      8  C   UNL     1      -4.890 -17.589 -16.434  0.00  0.00    +0.000 A 
ATOM      9  C   UNL     1      -6.044 -16.698 -16.572  0.00  0.00    +0.000 A 
ATOM     10  C   UNL     1      -5.040 -15.310 -14.993  0.00  0.00    +0.000 A 
ATOM     11  H   UNL     1      -3.195 -15.823 -14.206  0.00  0.00    +0.000 HD
ATOM     12  N   UNL     1      -5.014 -14.193 -14.227  0.00  0.00    +0.000 N 
ATOM     13  H   UNL     1      -4.775 -14.358 -13.258  0.00  0.00    +0.000 HD
ATOM     14  H   UNL     1      -5.897 -13.693 -14.297  0.00  0.00    +0.000 HD
ENDROOT
BRANCH   2  15
ATOM     15  C1* UNL     1      -1.686 -18.286 -14.997  0.00  0.00    +0.000 A 
ATOM     16  O4* UNL     1      -1.341 -17.441 -13.915  0.00  0.00    +0.000 OA
ATOM     17  C4* UNL     1      -0.039 -17.746 -13.485  0.00  0.00    +0.000 A 
ATOM     18  C3* UNL     1       0.463 -18.814 -14.303  0.00  0.00    +0.000 A 
ATOM     19  C2* UNL     1      -0.563 -19.159 -15.237  0.00  0.00    +0.000 A 
BRANCH  18  20
ATOM     20  O3* UNL     1       1.782 -18.949 -14.644  0.00  0.00    +0.000 OA
ATOM     21  H3* UNL     1       1.945 -18.665 -15.563  0.00  0.00    +0.000 HD
ENDBRANCH  18  20
BRANCH  19  22
ATOM     22  O2* UNL     1      -0.247 -19.644 -16.476  0.00  0.00    +0.000 OA
ATOM     23  H2* UNL     1       0.521 -19.151 -16.830  0.00  0.00    +0.000 HD
ENDBRANCH  19  22
BRANCH  17  24
ATOM     24  C5* UNL     1       0.684 -16.926 -12.600  0.00  0.00    +0.000 C 
BRANCH  24  25
ATOM     25  O5* UNL     1       1.347 -16.147 -11.751  0.00  0.00    +0.000 OA
ATOM     26  H5* UNL     1       0.728 -15.636 -11.200  0.00  0.00    +0.000 HD
ENDBRANCH  24  25
ENDBRANCH  17  24
ENDBRANCH   2  15
TORSDOF 5
ENDMDL
MODEL 8
REMARK VINA RESULT:      -3.7     20.028     21.866
REMARK  Name = Thioguanosine.pdbqt.pdb
REMARK  5 active torsions:
REMARK  status: ('A' for Active; 'I' for Inactive)
REMARK    1  A    between atoms: N_2  and  C1*_12
REMARK    2  A    between atoms: C4*_14  and  C5*_17
REMARK    3  A    between atoms: C3*_15  and  O3*_20
REMARK    4  A    between atoms: C2*_16  and  O2*_22
REMARK    5  A    between atoms: C5*_17  and  O5*_18
REMARK                            x       y       z     vdW  Elec       q    Type
REMARK                         _______ _______ _______ _____ _____    ______ ____
ROOT
ATOM      1  S   UNL     1     -12.516 -36.229  -1.625  0.00  0.00    +0.000 S 
ATOM      2  N   UNL     1      -8.357 -35.097  -3.951  0.00  0.00    +0.000 N 
ATOM      3  N   UNL     1      -8.843 -37.506  -3.809  0.00  0.00    +0.000 N 
ATOM      4  N   UNL     1     -10.226 -34.400  -2.881  0.00  0.00    +0.000 NA
ATOM      5  N   UNL     1     -10.829 -38.112  -2.651  0.00  0.00    +0.000 NA
ATOM      6  C   UNL     1      -9.092 -36.200  -3.600  0.00  0.00    +0.000 A 
ATOM      7  C   UNL     1      -9.120 -34.032  -3.498  0.00  0.00    +0.000 A 
ATOM      8  C   UNL     1     -10.212 -35.772  -2.934  0.00  0.00    +0.000 A 
ATOM      9  C   UNL     1     -11.151 -36.773  -2.423  0.00  0.00    +0.000 A 
ATOM     10  C   UNL     1      -9.744 -38.404  -3.307  0.00  0.00    +0.000 A 
ATOM     11  H   UNL     1      -7.998 -37.839  -4.266  0.00  0.00    +0.000 HD
ATOM     12  N   UNL     1      -9.412 -39.696  -3.547  0.00  0.00    +0.000 N 
ATOM     13  H   UNL     1      -9.137 -39.886  -4.501  0.00  0.00    +0.000 HD
ATOM     14  H   UNL     1     -10.167 -40.316  -3.262  0.00  0.00    +0.000 HD
ENDROOT
BRANCH   2  15
ATOM     15  C1* UNL     1      -7.133 -34.990  -4.584  0.00  0.00    +0.000 A 
ATOM     16  O4* UNL     1      -5.969 -34.574  -3.895  0.00  0.00    +0.000 OA
ATOM     17  C4* UNL     1      -4.886 -34.546  -4.790  0.00  0.00    +0.000 A 
ATOM     18  C3* UNL     1      -5.361 -34.958  -6.080  0.00  0.00    +0.000 A 
ATOM     19  C2* UNL     1      -6.756 -35.245  -5.952  0.00  0.00    +0.000 A 
BRANCH  18  20
ATOM     20  O3* UNL     1      -4.860 -34.477  -7.260  0.00  0.00    +0.000 OA
ATOM     21  H3* UNL     1      -4.236 -35.107  -7.667  0.00  0.00    +0.000 HD
ENDBRANCH  18  20
BRANCH  19  22
ATOM     22  O2* UNL     1      -7.608 -35.061  -7.007  0.00  0.00    +0.000 OA
ATOM     23  H2* UNL     1      -7.205 -34.436  -7.643  0.00  0.00    +0.000 HD
ENDBRANCH  19  22
BRANCH  17  24
ATOM     24  C5* UNL     1      -3.655 -33.942  -4.478  0.00  0.00    +0.000 C 
BRANCH  24  25
ATOM     25  O5* UNL     1      -2.486 -33.389  -4.169  0.00  0.00    +0.000 OA
ATOM     26  H5* UNL     1      -1.758 -34.015  -4.328  0.00  0.00    +0.000 HD
ENDBRANCH  24  25
ENDBRANCH  17  24
ENDBRANCH   2  15
TORSDOF 5
ENDMDL
MODEL 9
REMARK VINA RESULT:      -3.7     15.113     16.976
REMARK  Name = Thioguanosine.pdbqt.pdb
REMARK  5 active torsions:
REMARK  status: ('A' for Active; 'I' for Inactive)
REMARK    1  A    between atoms: N_2  and  C1*_12
REMARK    2  A    between atoms: C4*_14  and  C5*_17
REMARK    3  A    between atoms: C3*_15  and  O3*_20
REMARK    4  A    between atoms: C2*_16  and  O2*_22
REMARK    5  A    between atoms: C5*_17  and  O5*_18
REMARK                            x       y       z     vdW  Elec       q    Type
REMARK                         _______ _______ _______ _____ _____    ______ ____
ROOT
ATOM      1  S   UNL     1      -1.905 -10.163 -14.013  0.00  0.00    +0.000 S 
ATOM      2  N   UNL     1      -5.593 -13.163 -15.193  0.00  0.00    +0.000 N 
ATOM      3  N   UNL     1      -5.786 -12.103 -12.980  0.00  0.00    +0.000 N 
ATOM      4  N   UNL     1      -3.643 -12.173 -15.777  0.00  0.00    +0.000 NA
ATOM      5  N   UNL     1      -3.999 -10.670 -12.339  0.00  0.00    +0.000 NA
ATOM      6  C   UNL     1      -5.195 -12.348 -14.164  0.00  0.00    +0.000 A 
ATOM      7  C   UNL     1      -4.607 -12.990 -16.152  0.00  0.00    +0.000 A 
ATOM      8  C   UNL     1      -4.003 -11.767 -14.515  0.00  0.00    +0.000 A 
ATOM      9  C   UNL     1      -3.351 -10.870 -13.560  0.00  0.00    +0.000 A 
ATOM     10  C   UNL     1      -5.136 -11.263 -12.117  0.00  0.00    +0.000 A 
ATOM     11  H   UNL     1      -6.649 -12.556 -12.690  0.00  0.00    +0.000 HD
ATOM     12  N   UNL     1      -5.787 -11.083 -10.943  0.00  0.00    +0.000 N 
ATOM     13  H   UNL     1      -6.774 -10.881 -11.040  0.00  0.00    +0.000 HD
ATOM     14  H   UNL     1      -5.329 -10.363 -10.389  0.00  0.00    +0.000 HD
ENDROOT
BRANCH   2  15
ATOM     15  C1* UNL     1      -6.685 -14.001 -15.312  0.00  0.00    +0.000 A 
ATOM     16  O4* UNL     1      -8.011 -13.527 -15.169  0.00  0.00    +0.000 OA
ATOM     17  C4* UNL     1      -8.906 -14.598 -15.326  0.00  0.00    +0.000 A 
ATOM     18  C3* UNL     1      -8.142 -15.785 -15.584  0.00  0.00    +0.000 A 
ATOM     19  C2* UNL     1      -6.761 -15.415 -15.586  0.00  0.00    +0.000 A 
BRANCH  18  20
ATOM     20  O3* UNL     1      -8.522 -17.033 -15.170  0.00  0.00    +0.000 OA
ATOM     21  H3* UNL     1      -7.775 -17.525 -14.780  0.00  0.00    +0.000 HD
ENDBRANCH  18  20
BRANCH  19  22
ATOM     22  O2* UNL     1      -5.798 -16.303 -15.193  0.00  0.00    +0.000 OA
ATOM     23  H2* UNL     1      -5.882 -17.125 -15.717  0.00  0.00    +0.000 HD
ENDBRANCH  19  22
BRANCH  17  24
ATOM     24  C5* UNL     1     -10.271 -14.505 -14.997  0.00  0.00    +0.000 C 
BRANCH  24  25
ATOM     25  O5* UNL     1     -11.564 -14.412 -14.709  0.00  0.00    +0.000 OA
ATOM     26  H5* UNL     1     -12.083 -14.232 -15.513  0.00  0.00    +0.000 HD
ENDBRANCH  24  25
ENDBRANCH  17  24
ENDBRANCH   2  15
TORSDOF 5
ENDMDL
