MODEL 1
REMARK VINA RESULT:      -4.7      0.000      0.000
REMARK  Name = Trichostatin_A.pdbqt.pdb
REMARK  6 active torsions:
REMARK  status: ('A' for Active; 'I' for Inactive)
REMARK    1  A    between atoms: C_1  and  C_15
REMARK    2  A    between atoms: C_4  and  C_6
REMARK    3  A    between atoms: C_7  and  C_10
REMARK    4  A    between atoms: N_9  and  O_12
REMARK    5  A    between atoms: C_15  and  C_16
REMARK    6  A    between atoms: C_17  and  N_22
REMARK                            x       y       z     vdW  Elec       q    Type
REMARK                         _______ _______ _______ _____ _____    ______ ____
ROOT
ATOM      1  C   UNL     1      -8.032 -15.351   1.696  0.00  0.00    +0.000 C 
ATOM      2  C   UNL     1      -9.393 -14.882   1.224  0.00  0.00    +0.000 C 
ATOM      3  C   UNL     1      -6.945 -14.496   1.394  0.00  0.00    +0.000 C 
ATOM      4  C   UNL     1      -5.918 -13.755   1.137  0.00  0.00    +0.000 C 
ATOM      5  C   UNL     1      -5.413 -12.807   2.182  0.00  0.00    +0.000 C 
ENDROOT
BRANCH   4   6
ATOM      6  C   UNL     1      -5.158 -13.976  -0.034  0.00  0.00    +0.000 C 
ATOM      7  C   UNL     1      -4.509 -14.164  -1.028  0.00  0.00    +0.000 C 
BRANCH   7  10
ATOM      8  O   UNL     1      -2.714 -13.752  -2.426  0.00  0.00    +0.000 OA
ATOM      9  N   UNL     1      -4.215 -15.352  -3.072  0.00  0.00    +0.000 N 
ATOM     10  C   UNL     1      -3.737 -14.396  -2.220  0.00  0.00    +0.000 C 
ATOM     11  H   UNL     1      -5.062 -15.888  -2.921  0.00  0.00    +0.000 HD
BRANCH   9  12
ATOM     12  O   UNL     1      -3.488 -15.598  -4.255  0.00  0.00    +0.000 OA
ATOM     13  H   UNL     1      -4.193 -15.672  -4.934  0.00  0.00    +0.000 HD
ENDBRANCH   9  12
ENDBRANCH   7  10
ENDBRANCH   4   6
BRANCH   1  15
ATOM     14  O   UNL     1      -8.650 -17.400   2.725  0.00  0.00    +0.000 OA
ATOM     15  C   UNL     1      -7.762 -16.733   2.195  0.00  0.00    +0.000 C 
BRANCH  15  16
ATOM     16  C   UNL     1      -6.418 -17.329   2.047  0.00  0.00    +0.000 A 
ATOM     17  C   UNL     1      -3.813 -18.351   1.629  0.00  0.00    +0.000 A 
ATOM     18  C   UNL     1      -5.474 -17.274   3.067  0.00  0.00    +0.000 A 
ATOM     19  C   UNL     1      -6.065 -17.863   0.811  0.00  0.00    +0.000 A 
ATOM     20  C   UNL     1      -4.195 -17.790   2.859  0.00  0.00    +0.000 A 
ATOM     21  C   UNL     1      -4.783 -18.378   0.615  0.00  0.00    +0.000 A 
BRANCH  17  22
ATOM     22  N   UNL     1      -2.517 -18.890   1.431  0.00  0.00    +0.000 N 
ATOM     23  C   UNL     1      -1.483 -18.744   2.443  0.00  0.00    +0.000 C 
ATOM     24  C   UNL     1      -2.034 -19.208   0.097  0.00  0.00    +0.000 C 
ENDBRANCH  17  22
ENDBRANCH  15  16
ENDBRANCH   1  15
TORSDOF 6
ENDMDL
MODEL 2
REMARK VINA RESULT:      -4.7      9.710     11.808
REMARK  Name = Trichostatin_A.pdbqt.pdb
REMARK  6 active torsions:
REMARK  status: ('A' for Active; 'I' for Inactive)
REMARK    1  A    between atoms: C_1  and  C_15
REMARK    2  A    between atoms: C_4  and  C_6
REMARK    3  A    between atoms: C_7  and  C_10
REMARK    4  A    between atoms: N_9  and  O_12
REMARK    5  A    between atoms: C_15  and  C_16
REMARK    6  A    between atoms: C_17  and  N_22
REMARK                            x       y       z     vdW  Elec       q    Type
REMARK                         _______ _______ _______ _____ _____    ______ ____
ROOT
ATOM      1  C   UNL     1     -16.626 -17.030  -3.117  0.00  0.00    +0.000 C 
ATOM      2  C   UNL     1     -17.852 -16.831  -2.250  0.00  0.00    +0.000 C 
ATOM      3  C   UNL     1     -16.631 -16.351  -4.360  0.00  0.00    +0.000 C 
ATOM      4  C   UNL     1     -16.588 -15.758  -5.507  0.00  0.00    +0.000 C 
ATOM      5  C   UNL     1     -15.867 -14.451  -5.635  0.00  0.00    +0.000 C 
ENDROOT
BRANCH   4   6
ATOM      6  C   UNL     1     -17.041 -16.426  -6.668  0.00  0.00    +0.000 C 
ATOM      7  C   UNL     1     -17.428 -16.991  -7.655  0.00  0.00    +0.000 C 
BRANCH   7  10
ATOM      8  O   UNL     1     -18.848 -17.233  -9.464  0.00  0.00    +0.000 OA
ATOM      9  N   UNL     1     -17.190 -18.786  -9.202  0.00  0.00    +0.000 N 
ATOM     10  C   UNL     1     -17.886 -17.666  -8.841  0.00  0.00    +0.000 C 
ATOM     11  H   UNL     1     -16.398 -19.162  -8.695  0.00  0.00    +0.000 HD
BRANCH   9  12
ATOM     12  O   UNL     1     -17.617 -19.478 -10.355  0.00  0.00    +0.000 OA
ATOM     13  H   UNL     1     -16.781 -19.613 -10.851  0.00  0.00    +0.000 HD
ENDBRANCH   9  12
ENDBRANCH   7  10
ENDBRANCH   4   6
BRANCH   1  15
ATOM     14  O   UNL     1     -15.465 -19.044  -3.605  0.00  0.00    +0.000 OA
ATOM     15  C   UNL     1     -15.590 -18.075  -2.856  0.00  0.00    +0.000 C 
BRANCH  15  16
ATOM     16  C   UNL     1     -14.685 -17.953  -1.696  0.00  0.00    +0.000 A 
ATOM     17  C   UNL     1     -12.813 -17.690   0.411  0.00  0.00    +0.000 A 
ATOM     18  C   UNL     1     -14.837 -16.947  -0.747  0.00  0.00    +0.000 A 
ATOM     19  C   UNL     1     -13.591 -18.812  -1.619  0.00  0.00    +0.000 A 
ATOM     20  C   UNL     1     -13.917 -16.830   0.296  0.00  0.00    +0.000 A 
ATOM     21  C   UNL     1     -12.679 -18.685  -0.571  0.00  0.00    +0.000 A 
BRANCH  17  22
ATOM     22  N   UNL     1     -11.893 -17.576   1.483  0.00  0.00    +0.000 N 
ATOM     23  C   UNL     1     -10.627 -16.882   1.311  0.00  0.00    +0.000 C 
ATOM     24  C   UNL     1     -11.952 -18.481   2.620  0.00  0.00    +0.000 C 
ENDBRANCH  17  22
ENDBRANCH  15  16
ENDBRANCH   1  15
TORSDOF 6
ENDMDL
MODEL 3
REMARK VINA RESULT:      -4.6     15.006     16.921
REMARK  Name = Trichostatin_A.pdbqt.pdb
REMARK  6 active torsions:
REMARK  status: ('A' for Active; 'I' for Inactive)
REMARK    1  A    between atoms: C_1  and  C_15
REMARK    2  A    between atoms: C_4  and  C_6
REMARK    3  A    between atoms: C_7  and  C_10
REMARK    4  A    between atoms: N_9  and  O_12
REMARK    5  A    between atoms: C_15  and  C_16
REMARK    6  A    between atoms: C_17  and  N_22
REMARK                            x       y       z     vdW  Elec       q    Type
REMARK                         _______ _______ _______ _____ _____    ______ ____
ROOT
ATOM      1  C   UNL     1      -3.169 -18.034 -16.407  0.00  0.00    +0.000 C 
ATOM      2  C   UNL     1      -2.821 -18.434 -17.826  0.00  0.00    +0.000 C 
ATOM      3  C   UNL     1      -2.106 -17.503 -15.636  0.00  0.00    +0.000 C 
ATOM      4  C   UNL     1      -1.171 -17.020 -14.888  0.00  0.00    +0.000 C 
ATOM      5  C   UNL     1      -1.028 -15.534 -14.753  0.00  0.00    +0.000 C 
ENDROOT
BRANCH   4   6
ATOM      6  C   UNL     1      -0.418 -17.875 -14.050  0.00  0.00    +0.000 C 
ATOM      7  C   UNL     1       0.218 -18.602 -13.336  0.00  0.00    +0.000 C 
BRANCH   7  10
ATOM      8  O   UNL     1       1.468 -19.055 -11.444  0.00  0.00    +0.000 OA
ATOM      9  N   UNL     1       1.116 -20.768 -12.918  0.00  0.00    +0.000 N 
ATOM     10  C   UNL     1       0.981 -19.478 -12.486  0.00  0.00    +0.000 C 
ATOM     11  H   UNL     1       0.726 -21.132 -13.779  0.00  0.00    +0.000 HD
BRANCH   9  12
ATOM     12  O   UNL     1       1.866 -21.652 -12.114  0.00  0.00    +0.000 OA
ATOM     13  H   UNL     1       1.214 -21.941 -11.440  0.00  0.00    +0.000 HD
ENDBRANCH   9  12
ENDBRANCH   7  10
ENDBRANCH   4   6
BRANCH   1  15
ATOM     14  O   UNL     1      -4.574 -19.504 -15.180  0.00  0.00    +0.000 OA
ATOM     15  C   UNL     1      -4.448 -18.411 -15.732  0.00  0.00    +0.000 C 
BRANCH  15  16
ATOM     16  C   UNL     1      -5.583 -17.467 -15.706  0.00  0.00    +0.000 A 
ATOM     17  C   UNL     1      -7.824 -15.750 -15.511  0.00  0.00    +0.000 A 
ATOM     18  C   UNL     1      -5.404 -16.108 -15.466  0.00  0.00    +0.000 A 
ATOM     19  C   UNL     1      -6.872 -17.982 -15.821  0.00  0.00    +0.000 A 
ATOM     20  C   UNL     1      -6.513 -15.265 -15.384  0.00  0.00    +0.000 A 
ATOM     21  C   UNL     1      -7.972 -17.128 -15.737  0.00  0.00    +0.000 A 
BRANCH  17  22
ATOM     22  N   UNL     1      -8.945 -14.885 -15.444  0.00  0.00    +0.000 N 
ATOM     23  C   UNL     1      -8.970 -13.766 -14.516  0.00  0.00    +0.000 C 
ATOM     24  C   UNL     1     -10.245 -15.302 -15.944  0.00  0.00    +0.000 C 
ENDBRANCH  17  22
ENDBRANCH  15  16
ENDBRANCH   1  15
TORSDOF 6
ENDMDL
MODEL 4
REMARK VINA RESULT:      -4.6      6.968     10.551
REMARK  Name = Trichostatin_A.pdbqt.pdb
REMARK  6 active torsions:
REMARK  status: ('A' for Active; 'I' for Inactive)
REMARK    1  A    between atoms: C_1  and  C_15
REMARK    2  A    between atoms: C_4  and  C_6
REMARK    3  A    between atoms: C_7  and  C_10
REMARK    4  A    between atoms: N_9  and  O_12
REMARK    5  A    between atoms: C_15  and  C_16
REMARK    6  A    between atoms: C_17  and  N_22
REMARK                            x       y       z     vdW  Elec       q    Type
REMARK                         _______ _______ _______ _____ _____    ______ ____
ROOT
ATOM      1  C   UNL     1     -11.055 -16.769   1.578  0.00  0.00    +0.000 C 
ATOM      2  C   UNL     1      -9.554 -16.770   1.373  0.00  0.00    +0.000 C 
ATOM      3  C   UNL     1     -11.555 -17.724   2.495  0.00  0.00    +0.000 C 
ATOM      4  C   UNL     1     -12.064 -18.581   3.318  0.00  0.00    +0.000 C 
ATOM      5  C   UNL     1     -12.362 -18.165   4.726  0.00  0.00    +0.000 C 
ENDROOT
BRANCH   4   6
ATOM      6  C   UNL     1     -12.519 -19.834   2.846  0.00  0.00    +0.000 C 
ATOM      7  C   UNL     1     -12.902 -20.900   2.444  0.00  0.00    +0.000 C 
BRANCH   7  10
ATOM      8  O   UNL     1     -12.913 -23.212   2.448  0.00  0.00    +0.000 OA
ATOM      9  N   UNL     1     -14.308 -22.147   0.981  0.00  0.00    +0.000 N 
ATOM     10  C   UNL     1     -13.365 -22.177   1.969  0.00  0.00    +0.000 C 
ATOM     11  H   UNL     1     -14.686 -21.302   0.570  0.00  0.00    +0.000 HD
BRANCH   9  12
ATOM     12  O   UNL     1     -14.777 -23.382   0.486  0.00  0.00    +0.000 OA
ATOM     13  H   UNL     1     -14.103 -24.018   0.812  0.00  0.00    +0.000 HD
ENDBRANCH   9  12
ENDBRANCH   7  10
ENDBRANCH   4   6
BRANCH   1  15
ATOM     14  O   UNL     1     -11.871 -14.826   0.482  0.00  0.00    +0.000 OA
ATOM     15  C   UNL     1     -12.008 -16.031   0.695  0.00  0.00    +0.000 C 
BRANCH  15  16
ATOM     16  C   UNL     1     -13.130 -16.742   0.049  0.00  0.00    +0.000 A 
ATOM     17  C   UNL     1     -15.224 -18.259  -1.101  0.00  0.00    +0.000 A 
ATOM     18  C   UNL     1     -14.456 -16.404   0.297  0.00  0.00    +0.000 A 
ATOM     19  C   UNL     1     -12.839 -17.849  -0.745  0.00  0.00    +0.000 A 
ATOM     20  C   UNL     1     -15.483 -17.148  -0.283  0.00  0.00    +0.000 A 
ATOM     21  C   UNL     1     -13.876 -18.585  -1.320  0.00  0.00    +0.000 A 
BRANCH  17  22
ATOM     22  N   UNL     1     -16.273 -19.000  -1.701  0.00  0.00    +0.000 N 
ATOM     23  C   UNL     1     -16.359 -20.441  -1.537  0.00  0.00    +0.000 C 
ATOM     24  C   UNL     1     -17.024 -18.460  -2.823  0.00  0.00    +0.000 C 
ENDBRANCH  17  22
ENDBRANCH  15  16
ENDBRANCH   1  15
TORSDOF 6
ENDMDL
MODEL 5
REMARK VINA RESULT:      -4.5     14.061     15.591
REMARK  Name = Trichostatin_A.pdbqt.pdb
REMARK  6 active torsions:
REMARK  status: ('A' for Active; 'I' for Inactive)
REMARK    1  A    between atoms: C_1  and  C_15
REMARK    2  A    between atoms: C_4  and  C_6
REMARK    3  A    between atoms: C_7  and  C_10
REMARK    4  A    between atoms: N_9  and  O_12
REMARK    5  A    between atoms: C_15  and  C_16
REMARK    6  A    between atoms: C_17  and  N_22
REMARK                            x       y       z     vdW  Elec       q    Type
REMARK                         _______ _______ _______ _____ _____    ______ ____
ROOT
ATOM      1  C   UNL     1      -2.854 -15.497 -15.151  0.00  0.00    +0.000 C 
ATOM      2  C   UNL     1      -1.911 -15.099 -16.267  0.00  0.00    +0.000 C 
ATOM      3  C   UNL     1      -3.974 -14.653 -14.957  0.00  0.00    +0.000 C 
ATOM      4  C   UNL     1      -5.009 -13.912 -14.735  0.00  0.00    +0.000 C 
ATOM      5  C   UNL     1      -6.331 -14.294 -15.327  0.00  0.00    +0.000 C 
ENDROOT
BRANCH   4   6
ATOM      6  C   UNL     1      -4.943 -12.868 -13.783  0.00  0.00    +0.000 C 
ATOM      7  C   UNL     1      -4.886 -11.978 -12.977  0.00  0.00    +0.000 C 
BRANCH   7  10
ATOM      8  O   UNL     1      -3.829 -10.774 -11.311  0.00  0.00    +0.000 OA
ATOM      9  N   UNL     1      -5.925 -10.106 -11.934  0.00  0.00    +0.000 N 
ATOM     10  C   UNL     1      -4.826 -10.914 -12.010  0.00  0.00    +0.000 C 
ATOM     11  H   UNL     1      -6.760 -10.213 -12.499  0.00  0.00    +0.000 HD
BRANCH   9  12
ATOM     12  O   UNL     1      -5.904  -9.059 -10.989  0.00  0.00    +0.000 OA
ATOM     13  H   UNL     1      -5.411  -8.351 -11.459  0.00  0.00    +0.000 HD
ENDBRANCH   9  12
ENDBRANCH   7  10
ENDBRANCH   4   6
BRANCH   1  15
ATOM     14  O   UNL     1      -3.303 -16.770 -13.196  0.00  0.00    +0.000 OA
ATOM     15  C   UNL     1      -2.526 -16.528 -14.120  0.00  0.00    +0.000 C 
BRANCH  15  16
ATOM     16  C   UNL     1      -1.262 -17.287 -14.201  0.00  0.00    +0.000 A 
ATOM     17  C   UNL     1       1.145 -18.776 -14.178  0.00  0.00    +0.000 A 
ATOM     18  C   UNL     1      -1.144 -18.438 -14.974  0.00  0.00    +0.000 A 
ATOM     19  C   UNL     1      -0.199 -16.888 -13.395  0.00  0.00    +0.000 A 
ATOM     20  C   UNL     1       0.049 -19.161 -14.967  0.00  0.00    +0.000 A 
ATOM     21  C   UNL     1       0.990 -17.619 -13.398  0.00  0.00    +0.000 A 
BRANCH  17  22
ATOM     22  N   UNL     1       2.360 -19.505 -14.190  0.00  0.00    +0.000 N 
ATOM     23  C   UNL     1       2.966 -19.927 -15.442  0.00  0.00    +0.000 C 
ATOM     24  C   UNL     1       2.814 -20.224 -13.011  0.00  0.00    +0.000 C 
ENDBRANCH  17  22
ENDBRANCH  15  16
ENDBRANCH   1  15
TORSDOF 6
ENDMDL
MODEL 6
REMARK VINA RESULT:      -4.4     14.337     15.869
REMARK  Name = Trichostatin_A.pdbqt.pdb
REMARK  6 active torsions:
REMARK  status: ('A' for Active; 'I' for Inactive)
REMARK    1  A    between atoms: C_1  and  C_15
REMARK    2  A    between atoms: C_4  and  C_6
REMARK    3  A    between atoms: C_7  and  C_10
REMARK    4  A    between atoms: N_9  and  O_12
REMARK    5  A    between atoms: C_15  and  C_16
REMARK    6  A    between atoms: C_17  and  N_22
REMARK                            x       y       z     vdW  Elec       q    Type
REMARK                         _______ _______ _______ _____ _____    ______ ____
ROOT
ATOM      1  C   UNL     1      -8.044 -15.266 -16.287  0.00  0.00    +0.000 C 
ATOM      2  C   UNL     1      -7.875 -14.890 -17.745  0.00  0.00    +0.000 C 
ATOM      3  C   UNL     1      -8.348 -14.201 -15.405  0.00  0.00    +0.000 C 
ATOM      4  C   UNL     1      -8.619 -13.264 -14.558  0.00  0.00    +0.000 C 
ATOM      5  C   UNL     1     -10.042 -13.024 -14.155  0.00  0.00    +0.000 C 
ENDROOT
BRANCH   4   6
ATOM      6  C   UNL     1      -7.575 -12.607 -13.867  0.00  0.00    +0.000 C 
ATOM      7  C   UNL     1      -6.689 -12.049 -13.276  0.00  0.00    +0.000 C 
BRANCH   7  10
ATOM      8  O   UNL     1      -4.458 -11.695 -12.788  0.00  0.00    +0.000 OA
ATOM      9  N   UNL     1      -6.001 -10.426 -11.675  0.00  0.00    +0.000 N 
ATOM     10  C   UNL     1      -5.624 -11.387 -12.571  0.00  0.00    +0.000 C 
ATOM     11  H   UNL     1      -6.960 -10.164 -11.479  0.00  0.00    +0.000 HD
BRANCH   9  12
ATOM     12  O   UNL     1      -4.982  -9.763 -10.960  0.00  0.00    +0.000 OA
ATOM     13  H   UNL     1      -5.485  -9.238 -10.300  0.00  0.00    +0.000 HD
ENDBRANCH   9  12
ENDBRANCH   7  10
ENDBRANCH   4   6
BRANCH   1  15
ATOM     14  O   UNL     1      -8.502 -17.410 -15.373  0.00  0.00    +0.000 OA
ATOM     15  C   UNL     1      -7.650 -16.594 -15.725  0.00  0.00    +0.000 C 
BRANCH  15  16
ATOM     16  C   UNL     1      -6.224 -16.955 -15.595  0.00  0.00    +0.000 A 
ATOM     17  C   UNL     1      -3.502 -17.597 -15.167  0.00  0.00    +0.000 A 
ATOM     18  C   UNL     1      -5.776 -18.259 -15.780  0.00  0.00    +0.000 A 
ATOM     19  C   UNL     1      -5.331 -15.974 -15.170  0.00  0.00    +0.000 A 
ATOM     20  C   UNL     1      -4.430 -18.566 -15.580  0.00  0.00    +0.000 A 
ATOM     21  C   UNL     1      -3.988 -16.294 -14.974  0.00  0.00    +0.000 A 
BRANCH  17  22
ATOM     22  N   UNL     1      -2.132 -17.913 -14.983  0.00  0.00    +0.000 N 
ATOM     23  C   UNL     1      -1.289 -17.107 -14.115  0.00  0.00    +0.000 C 
ATOM     24  C   UNL     1      -1.418 -18.740 -15.942  0.00  0.00    +0.000 C 
ENDBRANCH  17  22
ENDBRANCH  15  16
ENDBRANCH   1  15
TORSDOF 6
ENDMDL
MODEL 7
REMARK VINA RESULT:      -4.4     16.938     19.431
REMARK  Name = Trichostatin_A.pdbqt.pdb
REMARK  6 active torsions:
REMARK  status: ('A' for Active; 'I' for Inactive)
REMARK    1  A    between atoms: C_1  and  C_15
REMARK    2  A    between atoms: C_4  and  C_6
REMARK    3  A    between atoms: C_7  and  C_10
REMARK    4  A    between atoms: N_9  and  O_12
REMARK    5  A    between atoms: C_15  and  C_16
REMARK    6  A    between atoms: C_17  and  N_22
REMARK                            x       y       z     vdW  Elec       q    Type
REMARK                         _______ _______ _______ _____ _____    ______ ____
ROOT
ATOM      1  C   UNL     1      -8.202 -33.150  -0.504  0.00  0.00    +0.000 C 
ATOM      2  C   UNL     1      -7.866 -31.741  -0.060  0.00  0.00    +0.000 C 
ATOM      3  C   UNL     1      -7.893 -34.179   0.418  0.00  0.00    +0.000 C 
ATOM      4  C   UNL     1      -7.624 -35.155   1.221  0.00  0.00    +0.000 C 
ATOM      5  C   UNL     1      -8.702 -35.700   2.107  0.00  0.00    +0.000 C 
ENDROOT
BRANCH   4   6
ATOM      6  C   UNL     1      -6.388 -35.835   1.123  0.00  0.00    +0.000 C 
ATOM      7  C   UNL     1      -5.337 -36.411   1.036  0.00  0.00    +0.000 C 
BRANCH   7  10
ATOM      8  O   UNL     1      -4.033 -38.255   0.541  0.00  0.00    +0.000 OA
ATOM      9  N   UNL     1      -2.971 -36.381   1.307  0.00  0.00    +0.000 N 
ATOM     10  C   UNL     1      -4.075 -37.096   0.937  0.00  0.00    +0.000 C 
ATOM     11  H   UNL     1      -2.988 -35.425   1.643  0.00  0.00    +0.000 HD
BRANCH   9  12
ATOM     12  O   UNL     1      -1.718 -37.025   1.231  0.00  0.00    +0.000 OA
ATOM     13  H   UNL     1      -1.950 -37.915   0.888  0.00  0.00    +0.000 HD
ENDBRANCH   9  12
ENDBRANCH   7  10
ENDBRANCH   4   6
BRANCH   1  15
ATOM     14  O   UNL     1      -9.749 -33.578  -2.255  0.00  0.00    +0.000 OA
ATOM     15  C   UNL     1      -8.570 -33.509  -1.907  0.00  0.00    +0.000 C 
BRANCH  15  16
ATOM     16  C   UNL     1      -7.518 -33.777  -2.908  0.00  0.00    +0.000 A 
ATOM     17  C   UNL     1      -5.425 -34.128  -4.780  0.00  0.00    +0.000 A 
ATOM     18  C   UNL     1      -6.646 -34.855  -2.788  0.00  0.00    +0.000 A 
ATOM     19  C   UNL     1      -7.337 -32.856  -3.937  0.00  0.00    +0.000 A 
ATOM     20  C   UNL     1      -5.624 -35.029  -3.722  0.00  0.00    +0.000 A 
ATOM     21  C   UNL     1      -6.311 -33.042  -4.865  0.00  0.00    +0.000 A 
BRANCH  17  22
ATOM     22  N   UNL     1      -4.396 -34.322  -5.735  0.00  0.00    +0.000 N 
ATOM     23  C   UNL     1      -2.998 -34.149  -5.373  0.00  0.00    +0.000 C 
ATOM     24  C   UNL     1      -4.676 -34.265  -7.161  0.00  0.00    +0.000 C 
ENDBRANCH  17  22
ENDBRANCH  15  16
ENDBRANCH   1  15
TORSDOF 6
ENDMDL
MODEL 8
REMARK VINA RESULT:      -4.4      2.805      5.589
REMARK  Name = Trichostatin_A.pdbqt.pdb
REMARK  6 active torsions:
REMARK  status: ('A' for Active; 'I' for Inactive)
REMARK    1  A    between atoms: C_1  and  C_15
REMARK    2  A    between atoms: C_4  and  C_6
REMARK    3  A    between atoms: C_7  and  C_10
REMARK    4  A    between atoms: N_9  and  O_12
REMARK    5  A    between atoms: C_15  and  C_16
REMARK    6  A    between atoms: C_17  and  N_22
REMARK                            x       y       z     vdW  Elec       q    Type
REMARK                         _______ _______ _______ _____ _____    ______ ____
ROOT
ATOM      1  C   UNL     1      -6.948 -11.689   1.778  0.00  0.00    +0.000 C 
ATOM      2  C   UNL     1      -6.755 -11.063   3.145  0.00  0.00    +0.000 C 
ATOM      3  C   UNL     1      -7.592 -12.949   1.760  0.00  0.00    +0.000 C 
ATOM      4  C   UNL     1      -8.168 -14.104   1.690  0.00  0.00    +0.000 C 
ATOM      5  C   UNL     1      -9.634 -14.179   1.392  0.00  0.00    +0.000 C 
ENDROOT
BRANCH   4   6
ATOM      6  C   UNL     1      -7.392 -15.286   1.693  0.00  0.00    +0.000 C 
ATOM      7  C   UNL     1      -6.731 -16.290   1.692  0.00  0.00    +0.000 C 
BRANCH   7  10
ATOM      8  O   UNL     1      -5.872 -18.189   0.692  0.00  0.00    +0.000 OA
ATOM      9  N   UNL     1      -5.284 -17.775   2.863  0.00  0.00    +0.000 N 
ATOM     10  C   UNL     1      -5.936 -17.489   1.696  0.00  0.00    +0.000 C 
ATOM     11  H   UNL     1      -5.332 -17.212   3.704  0.00  0.00    +0.000 HD
BRANCH   9  12
ATOM     12  O   UNL     1      -4.503 -18.949   2.905  0.00  0.00    +0.000 OA
ATOM     13  H   UNL     1      -3.585 -18.600   2.928  0.00  0.00    +0.000 HD
ENDBRANCH   9  12
ENDBRANCH   7  10
ENDBRANCH   4   6
BRANCH   1  15
ATOM     14  O   UNL     1      -6.475 -10.045   0.130  0.00  0.00    +0.000 OA
ATOM     15  C   UNL     1      -6.278 -11.189   0.539  0.00  0.00    +0.000 C 
BRANCH  15  16
ATOM     16  C   UNL     1      -5.354 -12.063  -0.211  0.00  0.00    +0.000 A 
ATOM     17  C   UNL     1      -3.640 -13.655  -1.804  0.00  0.00    +0.000 A 
ATOM     18  C   UNL     1      -3.975 -11.999  -0.034  0.00  0.00    +0.000 A 
ATOM     19  C   UNL     1      -5.883 -12.893  -1.196  0.00  0.00    +0.000 A 
ATOM     20  C   UNL     1      -3.137 -12.796  -0.814  0.00  0.00    +0.000 A 
ATOM     21  C   UNL     1      -5.034 -13.685  -1.969  0.00  0.00    +0.000 A 
BRANCH  17  22
ATOM     22  N   UNL     1      -2.783 -14.475  -2.581  0.00  0.00    +0.000 N 
ATOM     23  C   UNL     1      -3.324 -15.441  -3.522  0.00  0.00    +0.000 C 
ATOM     24  C   UNL     1      -1.404 -14.706  -2.182  0.00  0.00    +0.000 C 
ENDBRANCH  17  22
ENDBRANCH  15  16
ENDBRANCH   1  15
TORSDOF 6
ENDMDL
MODEL 9
REMARK VINA RESULT:      -4.3     19.127     21.846
REMARK  Name = Trichostatin_A.pdbqt.pdb
REMARK  6 active torsions:
REMARK  status: ('A' for Active; 'I' for Inactive)
REMARK    1  A    between atoms: C_1  and  C_15
REMARK    2  A    between atoms: C_4  and  C_6
REMARK    3  A    between atoms: C_7  and  C_10
REMARK    4  A    between atoms: N_9  and  O_12
REMARK    5  A    between atoms: C_15  and  C_16
REMARK    6  A    between atoms: C_17  and  N_22
REMARK                            x       y       z     vdW  Elec       q    Type
REMARK                         _______ _______ _______ _____ _____    ______ ____
ROOT
ATOM      1  C   UNL     1       0.584 -34.180 -12.980  0.00  0.00    +0.000 C 
ATOM      2  C   UNL     1      -0.140 -34.743 -14.186  0.00  0.00    +0.000 C 
ATOM      3  C   UNL     1       0.184 -34.695 -11.723  0.00  0.00    +0.000 C 
ATOM      4  C   UNL     1      -0.147 -35.127 -10.551  0.00  0.00    +0.000 C 
ATOM      5  C   UNL     1       0.656 -36.218  -9.913  0.00  0.00    +0.000 C 
ENDROOT
BRANCH   4   6
ATOM      6  C   UNL     1      -1.129 -34.445  -9.795  0.00  0.00    +0.000 C 
ATOM      7  C   UNL     1      -1.965 -33.866  -9.155  0.00  0.00    +0.000 C 
BRANCH   7  10
ATOM      8  O   UNL     1      -3.909 -33.799  -7.905  0.00  0.00    +0.000 OA
ATOM      9  N   UNL     1      -2.792 -31.831  -8.235  0.00  0.00    +0.000 N 
ATOM     10  C   UNL     1      -2.967 -33.178  -8.384  0.00  0.00    +0.000 C 
ATOM     11  H   UNL     1      -2.024 -31.301  -8.630  0.00  0.00    +0.000 HD
BRANCH   9  12
ATOM     12  O   UNL     1      -3.761 -31.124  -7.492  0.00  0.00    +0.000 OA
ATOM     13  H   UNL     1      -3.816 -30.266  -7.966  0.00  0.00    +0.000 HD
ENDBRANCH   9  12
ENDBRANCH   7  10
ENDBRANCH   4   6
BRANCH   1  15
ATOM     14  O   UNL     1       1.421 -32.202 -13.994  0.00  0.00    +0.000 OA
ATOM     15  C   UNL     1       1.459 -32.970 -13.032  0.00  0.00    +0.000 C 
BRANCH  15  16
ATOM     16  C   UNL     1       2.380 -32.667 -11.918  0.00  0.00    +0.000 A 
ATOM     17  C   UNL     1       4.020 -32.161  -9.668  0.00  0.00    +0.000 A 
ATOM     18  C   UNL     1       3.638 -33.254 -11.824  0.00  0.00    +0.000 A 
ATOM     19  C   UNL     1       1.921 -31.853 -10.885  0.00  0.00    +0.000 A 
ATOM     20  C   UNL     1       4.447 -32.990 -10.718  0.00  0.00    +0.000 A 
ATOM     21  C   UNL     1       2.740 -31.597  -9.785  0.00  0.00    +0.000 A 
BRANCH  17  22
ATOM     22  N   UNL     1       4.855 -31.884  -8.557  0.00  0.00    +0.000 N 
ATOM     23  C   UNL     1       4.855 -30.571  -7.932  0.00  0.00    +0.000 C 
ATOM     24  C   UNL     1       6.021 -32.703  -8.273  0.00  0.00    +0.000 C 
ENDBRANCH  17  22
ENDBRANCH  15  16
ENDBRANCH   1  15
TORSDOF 6
ENDMDL
