MODEL 1
REMARK VINA RESULT:      -5.3      0.000      0.000
REMARK  Name = Trifluridine.pdbqt.pdb
REMARK  5 active torsions:
REMARK  status: ('A' for Active; 'I' for Inactive)
REMARK    1  A    between atoms: N_3  and  C1*_10
REMARK    2  A    between atoms: C_7  and  C_20
REMARK    3  A    between atoms: C4*_12  and  C5*_15
REMARK    4  A    between atoms: C3*_13  and  O3*_18
REMARK    5  A    between atoms: C5*_15  and  O5*_16
REMARK                            x       y       z     vdW  Elec       q    Type
REMARK                         _______ _______ _______ _____ _____    ______ ____
ROOT
ATOM      1  O   UNL     1      -3.823 -31.086  -7.990  0.00  0.00    +0.000 OA
ATOM      2  O   UNL     1      -1.077 -33.077 -11.081  0.00  0.00    +0.000 OA
ATOM      3  N   UNL     1      -3.179 -33.335  -7.622  0.00  0.00    +0.000 N 
ATOM      4  N   UNL     1      -2.444 -32.134  -9.496  0.00  0.00    +0.000 N 
ATOM      5  C   UNL     1      -2.441 -34.318  -8.175  0.00  0.00    +0.000 A 
ATOM      6  C   UNL     1      -3.217 -32.102  -8.311  0.00  0.00    +0.000 A 
ATOM      7  C   UNL     1      -1.716 -34.443  -9.237  0.00  0.00    +0.000 A 
ATOM      8  C   UNL     1      -1.696 -33.190 -10.033  0.00  0.00    +0.000 A 
ATOM      9  H   UNL     1      -2.440 -31.275 -10.028  0.00  0.00    +0.000 HD
ENDROOT
BRANCH   3  10
ATOM     10  C1* UNL     1      -3.842 -33.578  -6.454  0.00  0.00    +0.000 A 
ATOM     11  O4* UNL     1      -5.210 -33.321  -6.309  0.00  0.00    +0.000 OA
ATOM     12  C4* UNL     1      -5.550 -33.656  -4.992  0.00  0.00    +0.000 A 
ATOM     13  C3* UNL     1      -4.374 -34.133  -4.308  0.00  0.00    +0.000 A 
ATOM     14  C2* UNL     1      -3.322 -34.065  -5.239  0.00  0.00    +0.000 A 
BRANCH  13  15
ATOM     15  O3* UNL     1      -4.221 -33.952  -2.963  0.00  0.00    +0.000 OA
ATOM     16  H3* UNL     1      -3.886 -34.760  -2.538  0.00  0.00    +0.000 HD
ENDBRANCH  13  15
BRANCH  12  17
ATOM     17  C5* UNL     1      -6.800 -33.332  -4.428  0.00  0.00    +0.000 C 
BRANCH  17  18
ATOM     18  O5* UNL     1      -7.981 -33.025  -3.902  0.00  0.00    +0.000 OA
ATOM     19  H5* UNL     1      -8.103 -32.061  -3.889  0.00  0.00    +0.000 HD
ENDBRANCH  17  18
ENDBRANCH  12  17
ENDBRANCH   3  10
BRANCH   7  20
ATOM     20  C   UNL     1      -0.973 -35.605  -9.744  0.00  0.00    +0.000 C 
ATOM     21  F   UNL     1       0.361 -35.375  -9.826  0.00  0.00    +0.000 F 
ATOM     22  F   UNL     1      -1.120 -36.688  -8.933  0.00  0.00    +0.000 F 
ATOM     23  F   UNL     1      -1.395 -35.995 -10.973  0.00  0.00    +0.000 F 
ENDBRANCH   7  20
TORSDOF 5
ENDMDL
MODEL 2
REMARK VINA RESULT:      -5.3      4.722      7.450
REMARK  Name = Trifluridine.pdbqt.pdb
REMARK  5 active torsions:
REMARK  status: ('A' for Active; 'I' for Inactive)
REMARK    1  A    between atoms: N_3  and  C1*_10
REMARK    2  A    between atoms: C_7  and  C_20
REMARK    3  A    between atoms: C4*_12  and  C5*_15
REMARK    4  A    between atoms: C3*_13  and  O3*_18
REMARK    5  A    between atoms: C5*_15  and  O5*_16
REMARK                            x       y       z     vdW  Elec       q    Type
REMARK                         _______ _______ _______ _____ _____    ______ ____
ROOT
ATOM      1  O   UNL     1      -4.378 -36.199  -5.117  0.00  0.00    +0.000 OA
ATOM      2  O   UNL     1      -7.100 -34.620  -1.777  0.00  0.00    +0.000 OA
ATOM      3  N   UNL     1      -5.460 -34.119  -5.453  0.00  0.00    +0.000 N 
ATOM      4  N   UNL     1      -5.745 -35.353  -3.479  0.00  0.00    +0.000 N 
ATOM      5  C   UNL     1      -6.301 -33.265  -4.838  0.00  0.00    +0.000 A 
ATOM      6  C   UNL     1      -5.117 -35.295  -4.746  0.00  0.00    +0.000 A 
ATOM      7  C   UNL     1      -6.920 -33.232  -3.705  0.00  0.00    +0.000 A 
ATOM      8  C   UNL     1      -6.622 -34.434  -2.887  0.00  0.00    +0.000 A 
ATOM      9  H   UNL     1      -5.533 -36.176  -2.933  0.00  0.00    +0.000 HD
ENDROOT
BRANCH   3  10
ATOM     10  C1* UNL     1      -4.998 -33.817  -6.701  0.00  0.00    +0.000 A 
ATOM     11  O4* UNL     1      -3.737 -33.247  -6.909  0.00  0.00    +0.000 OA
ATOM     12  C4* UNL     1      -3.603 -33.047  -8.289  0.00  0.00    +0.000 A 
ATOM     13  C3* UNL     1      -4.800 -33.504  -8.950  0.00  0.00    +0.000 A 
ATOM     14  C2* UNL     1      -5.657 -33.970  -7.937  0.00  0.00    +0.000 A 
BRANCH  13  15
ATOM     15  O3* UNL     1      -5.228 -32.922 -10.109  0.00  0.00    +0.000 OA
ATOM     16  H3* UNL     1      -5.638 -33.579 -10.699  0.00  0.00    +0.000 HD
ENDBRANCH  13  15
BRANCH  12  17
ATOM     17  C5* UNL     1      -2.545 -32.302  -8.845  0.00  0.00    +0.000 C 
BRANCH  17  18
ATOM     18  O5* UNL     1      -1.547 -31.595  -9.365  0.00  0.00    +0.000 OA
ATOM     19  H5* UNL     1      -1.842 -30.690  -9.562  0.00  0.00    +0.000 HD
ENDBRANCH  17  18
ENDBRANCH  12  17
ENDBRANCH   3  10
BRANCH   7  20
ATOM     20  C   UNL     1      -7.849 -32.231  -3.162  0.00  0.00    +0.000 C 
ATOM     21  F   UNL     1      -7.416 -31.699  -1.992  0.00  0.00    +0.000 F 
ATOM     22  F   UNL     1      -8.011 -31.182  -4.015  0.00  0.00    +0.000 F 
ATOM     23  F   UNL     1      -9.089 -32.735  -2.947  0.00  0.00    +0.000 F 
ENDBRANCH   7  20
TORSDOF 5
ENDMDL
MODEL 3
REMARK VINA RESULT:      -5.2      5.641      8.283
REMARK  Name = Trifluridine.pdbqt.pdb
REMARK  5 active torsions:
REMARK  status: ('A' for Active; 'I' for Inactive)
REMARK    1  A    between atoms: N_3  and  C1*_10
REMARK    2  A    between atoms: C_7  and  C_20
REMARK    3  A    between atoms: C4*_12  and  C5*_15
REMARK    4  A    between atoms: C3*_13  and  O3*_18
REMARK    5  A    between atoms: C5*_15  and  O5*_16
REMARK                            x       y       z     vdW  Elec       q    Type
REMARK                         _______ _______ _______ _____ _____    ______ ____
ROOT
ATOM      1  O   UNL     1      -7.693 -35.638  -5.495  0.00  0.00    +0.000 OA
ATOM      2  O   UNL     1     -10.476 -34.281  -2.108  0.00  0.00    +0.000 OA
ATOM      3  N   UNL     1      -6.981 -33.846  -4.120  0.00  0.00    +0.000 N 
ATOM      4  N   UNL     1      -9.037 -34.920  -3.779  0.00  0.00    +0.000 N 
ATOM      5  C   UNL     1      -7.383 -33.111  -3.064  0.00  0.00    +0.000 A 
ATOM      6  C   UNL     1      -7.859 -34.863  -4.560  0.00  0.00    +0.000 A 
ATOM      7  C   UNL     1      -8.424 -33.084  -2.300  0.00  0.00    +0.000 A 
ATOM      8  C   UNL     1      -9.411 -34.123  -2.689  0.00  0.00    +0.000 A 
ATOM      9  H   UNL     1      -9.700 -35.631  -4.054  0.00  0.00    +0.000 HD
ENDROOT
BRANCH   3  10
ATOM     10  C1* UNL     1      -5.777 -33.572  -4.701  0.00  0.00    +0.000 A 
ATOM     11  O4* UNL     1      -5.674 -32.835  -5.886  0.00  0.00    +0.000 OA
ATOM     12  C4* UNL     1      -4.313 -32.768  -6.209  0.00  0.00    +0.000 A 
ATOM     13  C3* UNL     1      -3.556 -33.474  -5.205  0.00  0.00    +0.000 A 
ATOM     14  C2* UNL     1      -4.493 -33.973  -4.282  0.00  0.00    +0.000 A 
BRANCH  13  15
ATOM     15  O3* UNL     1      -2.382 -34.097  -5.519  0.00  0.00    +0.000 OA
ATOM     16  H3* UNL     1      -2.087 -33.856  -6.415  0.00  0.00    +0.000 HD
ENDBRANCH  13  15
BRANCH  12  17
ATOM     17  C5* UNL     1      -3.853 -32.281  -7.448  0.00  0.00    +0.000 C 
BRANCH  17  18
ATOM     18  O5* UNL     1      -3.416 -31.825  -8.618  0.00  0.00    +0.000 OA
ATOM     19  H5* UNL     1      -3.456 -30.855  -8.636  0.00  0.00    +0.000 HD
ENDBRANCH  17  18
ENDBRANCH  12  17
ENDBRANCH   3  10
BRANCH   7  20
ATOM     20  C   UNL     1      -8.752 -32.193  -1.179  0.00  0.00    +0.000 C 
ATOM     21  F   UNL     1      -9.807 -31.384  -1.448  0.00  0.00    +0.000 F 
ATOM     22  F   UNL     1      -9.091 -32.895  -0.062  0.00  0.00    +0.000 F 
ATOM     23  F   UNL     1      -7.711 -31.401  -0.823  0.00  0.00    +0.000 F 
ENDBRANCH   7  20
TORSDOF 5
ENDMDL
MODEL 4
REMARK VINA RESULT:      -5.1     20.327     21.884
REMARK  Name = Trifluridine.pdbqt.pdb
REMARK  5 active torsions:
REMARK  status: ('A' for Active; 'I' for Inactive)
REMARK    1  A    between atoms: N_3  and  C1*_10
REMARK    2  A    between atoms: C_7  and  C_20
REMARK    3  A    between atoms: C4*_12  and  C5*_15
REMARK    4  A    between atoms: C3*_13  and  O3*_18
REMARK    5  A    between atoms: C5*_15  and  O5*_16
REMARK                            x       y       z     vdW  Elec       q    Type
REMARK                         _______ _______ _______ _____ _____    ______ ____
ROOT
ATOM      1  O   UNL     1      -3.093 -16.049   0.184  0.00  0.00    +0.000 OA
ATOM      2  O   UNL     1      -6.455 -13.498   1.987  0.00  0.00    +0.000 OA
ATOM      3  N   UNL     1      -4.130 -14.433  -1.202  0.00  0.00    +0.000 N 
ATOM      4  N   UNL     1      -4.775 -14.737   1.032  0.00  0.00    +0.000 N 
ATOM      5  C   UNL     1      -5.093 -13.491  -1.174  0.00  0.00    +0.000 A 
ATOM      6  C   UNL     1      -3.909 -15.155  -0.007  0.00  0.00    +0.000 A 
ATOM      7  C   UNL     1      -5.925 -13.046  -0.291  0.00  0.00    +0.000 A 
ATOM      8  C   UNL     1      -5.770 -13.750   1.006  0.00  0.00    +0.000 A 
ATOM      9  H   UNL     1      -4.659 -15.225   1.909  0.00  0.00    +0.000 HD
ENDROOT
BRANCH   3  10
ATOM     10  C1* UNL     1      -3.436 -14.641  -2.359  0.00  0.00    +0.000 A 
ATOM     11  O4* UNL     1      -2.261 -13.941  -2.658  0.00  0.00    +0.000 OA
ATOM     12  C4* UNL     1      -1.835 -14.378  -3.918  0.00  0.00    +0.000 A 
ATOM     13  C3* UNL     1      -2.759 -15.370  -4.409  0.00  0.00    +0.000 A 
ATOM     14  C2* UNL     1      -3.752 -15.508  -3.423  0.00  0.00    +0.000 A 
BRANCH  13  15
ATOM     15  O3* UNL     1      -2.983 -15.520  -5.749  0.00  0.00    +0.000 OA
ATOM     16  H3* UNL     1      -3.856 -15.915  -5.915  0.00  0.00    +0.000 HD
ENDBRANCH  13  15
BRANCH  12  17
ATOM     17  C5* UNL     1      -0.800 -13.741  -4.629  0.00  0.00    +0.000 C 
BRANCH  17  18
ATOM     18  O5* UNL     1       0.173 -13.135  -5.302  0.00  0.00    +0.000 OA
ATOM     19  H5* UNL     1       0.461 -13.689  -6.048  0.00  0.00    +0.000 HD
ENDBRANCH  17  18
ENDBRANCH  12  17
ENDBRANCH   3  10
BRANCH   7  20
ATOM     20  C   UNL     1      -6.962 -12.012  -0.405  0.00  0.00    +0.000 C 
ATOM     21  F   UNL     1      -6.661 -10.892   0.299  0.00  0.00    +0.000 F 
ATOM     22  F   UNL     1      -7.132 -11.611  -1.695  0.00  0.00    +0.000 F 
ATOM     23  F   UNL     1      -8.176 -12.445   0.017  0.00  0.00    +0.000 F 
ENDBRANCH   7  20
TORSDOF 5
ENDMDL
MODEL 5
REMARK VINA RESULT:      -5.0      4.914      7.393
REMARK  Name = Trifluridine.pdbqt.pdb
REMARK  5 active torsions:
REMARK  status: ('A' for Active; 'I' for Inactive)
REMARK    1  A    between atoms: N_3  and  C1*_10
REMARK    2  A    between atoms: C_7  and  C_20
REMARK    3  A    between atoms: C4*_12  and  C5*_15
REMARK    4  A    between atoms: C3*_13  and  O3*_18
REMARK    5  A    between atoms: C5*_15  and  O5*_16
REMARK                            x       y       z     vdW  Elec       q    Type
REMARK                         _______ _______ _______ _____ _____    ______ ____
ROOT
ATOM      1  O   UNL     1      -4.334 -35.827  -5.328  0.00  0.00    +0.000 OA
ATOM      2  O   UNL     1      -7.091 -34.655  -1.850  0.00  0.00    +0.000 OA
ATOM      3  N   UNL     1      -5.532 -33.791  -5.494  0.00  0.00    +0.000 N 
ATOM      4  N   UNL     1      -5.722 -35.183  -3.616  0.00  0.00    +0.000 N 
ATOM      5  C   UNL     1      -6.410 -33.032  -4.808  0.00  0.00    +0.000 A 
ATOM      6  C   UNL     1      -5.116 -34.995  -4.882  0.00  0.00    +0.000 A 
ATOM      7  C   UNL     1      -7.013 -33.119  -3.669  0.00  0.00    +0.000 A 
ATOM      8  C   UNL     1      -6.639 -34.360  -2.948  0.00  0.00    +0.000 A 
ATOM      9  H   UNL     1      -5.459 -36.032  -3.137  0.00  0.00    +0.000 HD
ENDROOT
BRANCH   3  10
ATOM     10  C1* UNL     1      -5.105 -33.370  -6.721  0.00  0.00    +0.000 A 
ATOM     11  O4* UNL     1      -5.654 -33.866  -7.909  0.00  0.00    +0.000 OA
ATOM     12  C4* UNL     1      -4.971 -33.246  -8.963  0.00  0.00    +0.000 A 
ATOM     13  C3* UNL     1      -3.983 -32.347  -8.420  0.00  0.00    +0.000 A 
ATOM     14  C2* UNL     1      -4.081 -32.451  -7.021  0.00  0.00    +0.000 A 
BRANCH  13  15
ATOM     15  O3* UNL     1      -2.821 -32.093  -9.091  0.00  0.00    +0.000 OA
ATOM     16  H3* UNL     1      -2.537 -31.171  -8.959  0.00  0.00    +0.000 HD
ENDBRANCH  13  15
BRANCH  12  17
ATOM     17  C5* UNL     1      -5.116 -33.657 -10.302  0.00  0.00    +0.000 C 
BRANCH  17  18
ATOM     18  O5* UNL     1      -5.253 -34.050 -11.565  0.00  0.00    +0.000 OA
ATOM     19  H5* UNL     1      -4.515 -34.629 -11.818  0.00  0.00    +0.000 HD
ENDBRANCH  17  18
ENDBRANCH  12  17
ENDBRANCH   3  10
BRANCH   7  20
ATOM     20  C   UNL     1      -7.987 -32.213  -3.043  0.00  0.00    +0.000 C 
ATOM     21  F   UNL     1      -7.549 -31.715  -1.860  0.00  0.00    +0.000 F 
ATOM     22  F   UNL     1      -8.250 -31.135  -3.832  0.00  0.00    +0.000 F 
ATOM     23  F   UNL     1      -9.182 -32.813  -2.816  0.00  0.00    +0.000 F 
ENDBRANCH   7  20
TORSDOF 5
ENDMDL
MODEL 6
REMARK VINA RESULT:      -4.8      3.938      6.558
REMARK  Name = Trifluridine.pdbqt.pdb
REMARK  5 active torsions:
REMARK  status: ('A' for Active; 'I' for Inactive)
REMARK    1  A    between atoms: N_3  and  C1*_10
REMARK    2  A    between atoms: C_7  and  C_20
REMARK    3  A    between atoms: C4*_12  and  C5*_15
REMARK    4  A    between atoms: C3*_13  and  O3*_18
REMARK    5  A    between atoms: C5*_15  and  O5*_16
REMARK                            x       y       z     vdW  Elec       q    Type
REMARK                         _______ _______ _______ _____ _____    ______ ____
ROOT
ATOM      1  O   UNL     1      -6.623 -34.632  -2.797  0.00  0.00    +0.000 OA
ATOM      2  O   UNL     1      -3.879 -37.505  -0.499  0.00  0.00    +0.000 OA
ATOM      3  N   UNL     1      -4.683 -35.436  -3.894  0.00  0.00    +0.000 N 
ATOM      4  N   UNL     1      -5.216 -36.079  -1.703  0.00  0.00    +0.000 N 
ATOM      5  C   UNL     1      -3.621 -36.240  -3.690  0.00  0.00    +0.000 A 
ATOM      6  C   UNL     1      -5.601 -35.308  -2.826  0.00  0.00    +0.000 A 
ATOM      7  C   UNL     1      -3.188 -36.969  -2.716  0.00  0.00    +0.000 A 
ATOM      8  C   UNL     1      -4.091 -36.898  -1.540  0.00  0.00    +0.000 A 
ATOM      9  H   UNL     1      -5.839 -36.020  -0.910  0.00  0.00    +0.000 HD
ENDROOT
BRANCH   3  10
ATOM     10  C1* UNL     1      -4.812 -34.794  -5.092  0.00  0.00    +0.000 A 
ATOM     11  O4* UNL     1      -4.009 -33.703  -5.441  0.00  0.00    +0.000 OA
ATOM     12  C4* UNL     1      -4.425 -33.280  -6.710  0.00  0.00    +0.000 A 
ATOM     13  C3* UNL     1      -5.503 -34.125  -7.158  0.00  0.00    +0.000 A 
ATOM     14  C2* UNL     1      -5.731 -35.055  -6.128  0.00  0.00    +0.000 A 
BRANCH  13  15
ATOM     15  O3* UNL     1      -6.478 -33.643  -7.985  0.00  0.00    +0.000 OA
ATOM     16  H3* UNL     1      -6.159 -32.874  -8.489  0.00  0.00    +0.000 HD
ENDBRANCH  13  15
BRANCH  12  17
ATOM     17  C5* UNL     1      -3.980 -32.075  -7.288  0.00  0.00    +0.000 C 
BRANCH  17  18
ATOM     18  O5* UNL     1      -3.563 -30.939  -7.838  0.00  0.00    +0.000 OA
ATOM     19  H5* UNL     1      -4.322 -30.422  -8.157  0.00  0.00    +0.000 HD
ENDBRANCH  17  18
ENDBRANCH  12  17
ENDBRANCH   3  10
BRANCH   7  20
ATOM     20  C   UNL     1      -1.975 -37.791  -2.616  0.00  0.00    +0.000 C 
ATOM     21  F   UNL     1      -1.133 -37.606  -3.663  0.00  0.00    +0.000 F 
ATOM     22  F   UNL     1      -1.256 -37.493  -1.498  0.00  0.00    +0.000 F 
ATOM     23  F   UNL     1      -2.250 -39.117  -2.543  0.00  0.00    +0.000 F 
ENDBRANCH   7  20
TORSDOF 5
ENDMDL
MODEL 7
REMARK VINA RESULT:      -4.8      5.768      7.622
REMARK  Name = Trifluridine.pdbqt.pdb
REMARK  5 active torsions:
REMARK  status: ('A' for Active; 'I' for Inactive)
REMARK    1  A    between atoms: N_3  and  C1*_10
REMARK    2  A    between atoms: C_7  and  C_20
REMARK    3  A    between atoms: C4*_12  and  C5*_15
REMARK    4  A    between atoms: C3*_13  and  O3*_18
REMARK    5  A    between atoms: C5*_15  and  O5*_16
REMARK                            x       y       z     vdW  Elec       q    Type
REMARK                         _______ _______ _______ _____ _____    ______ ____
ROOT
ATOM      1  O   UNL     1      -1.441 -37.786  -4.889  0.00  0.00    +0.000 OA
ATOM      2  O   UNL     1      -0.274 -39.218  -0.688  0.00  0.00    +0.000 OA
ATOM      3  N   UNL     1      -2.350 -36.637  -3.028  0.00  0.00    +0.000 N 
ATOM      4  N   UNL     1      -0.888 -38.450  -2.762  0.00  0.00    +0.000 N 
ATOM      5  C   UNL     1      -2.334 -36.646  -1.681  0.00  0.00    +0.000 A 
ATOM      6  C   UNL     1      -1.567 -37.615  -3.682  0.00  0.00    +0.000 A 
ATOM      7  C   UNL     1      -1.761 -37.358  -0.769  0.00  0.00    +0.000 A 
ATOM      8  C   UNL     1      -0.911 -38.421  -1.362  0.00  0.00    +0.000 A 
ATOM      9  H   UNL     1      -0.314 -39.169  -3.180  0.00  0.00    +0.000 HD
ENDROOT
BRANCH   3  10
ATOM     10  C1* UNL     1      -3.111 -35.708  -3.678  0.00  0.00    +0.000 A 
ATOM     11  O4* UNL     1      -4.436 -35.961  -4.051  0.00  0.00    +0.000 OA
ATOM     12  C4* UNL     1      -4.899 -34.817  -4.713  0.00  0.00    +0.000 A 
ATOM     13  C3* UNL     1      -3.844 -33.835  -4.750  0.00  0.00    +0.000 A 
ATOM     14  C2* UNL     1      -2.738 -34.419  -4.107  0.00  0.00    +0.000 A 
BRANCH  13  15
ATOM     15  O3* UNL     1      -3.750 -32.944  -5.781  0.00  0.00    +0.000 OA
ATOM     16  H3* UNL     1      -2.827 -32.670  -5.922  0.00  0.00    +0.000 HD
ENDBRANCH  13  15
BRANCH  12  17
ATOM     17  C5* UNL     1      -6.123 -34.791  -5.409  0.00  0.00    +0.000 C 
BRANCH  17  18
ATOM     18  O5* UNL     1      -7.279 -34.771  -6.065  0.00  0.00    +0.000 OA
ATOM     19  H5* UNL     1      -7.916 -34.198  -5.607  0.00  0.00    +0.000 HD
ENDBRANCH  17  18
ENDBRANCH  12  17
ENDBRANCH   3  10
BRANCH   7  20
ATOM     20  C   UNL     1      -1.854 -37.274   0.695  0.00  0.00    +0.000 C 
ATOM     21  F   UNL     1      -0.684 -36.903   1.272  0.00  0.00    +0.000 F 
ATOM     22  F   UNL     1      -2.777 -36.353   1.088  0.00  0.00    +0.000 F 
ATOM     23  F   UNL     1      -2.233 -38.448   1.260  0.00  0.00    +0.000 F 
ENDBRANCH   7  20
TORSDOF 5
ENDMDL
MODEL 8
REMARK VINA RESULT:      -4.7      3.867      5.278
REMARK  Name = Trifluridine.pdbqt.pdb
REMARK  5 active torsions:
REMARK  status: ('A' for Active; 'I' for Inactive)
REMARK    1  A    between atoms: N_3  and  C1*_10
REMARK    2  A    between atoms: C_7  and  C_20
REMARK    3  A    between atoms: C4*_12  and  C5*_15
REMARK    4  A    between atoms: C3*_13  and  O3*_18
REMARK    5  A    between atoms: C5*_15  and  O5*_16
REMARK                            x       y       z     vdW  Elec       q    Type
REMARK                         _______ _______ _______ _____ _____    ______ ____
ROOT
ATOM      1  O   UNL     1      -2.265 -33.853  -3.879  0.00  0.00    +0.000 OA
ATOM      2  O   UNL     1      -4.688 -32.065  -7.343  0.00  0.00    +0.000 OA
ATOM      3  N   UNL     1      -2.951 -35.302  -5.623  0.00  0.00    +0.000 N 
ATOM      4  N   UNL     1      -3.472 -33.016  -5.643  0.00  0.00    +0.000 N 
ATOM      5  C   UNL     1      -3.629 -35.293  -6.787  0.00  0.00    +0.000 A 
ATOM      6  C   UNL     1      -2.832 -34.067  -4.945  0.00  0.00    +0.000 A 
ATOM      7  C   UNL     1      -4.243 -34.401  -7.492  0.00  0.00    +0.000 A 
ATOM      8  C   UNL     1      -4.174 -33.062  -6.855  0.00  0.00    +0.000 A 
ATOM      9  H   UNL     1      -3.418 -32.111  -5.198  0.00  0.00    +0.000 HD
ENDROOT
BRANCH   3  10
ATOM     10  C1* UNL     1      -2.430 -36.478  -5.165  0.00  0.00    +0.000 A 
ATOM     11  O4* UNL     1      -1.943 -36.617  -3.860  0.00  0.00    +0.000 OA
ATOM     12  C4* UNL     1      -1.465 -37.928  -3.741  0.00  0.00    +0.000 A 
ATOM     13  C3* UNL     1      -1.663 -38.617  -4.992  0.00  0.00    +0.000 A 
ATOM     14  C2* UNL     1      -2.257 -37.688  -5.865  0.00  0.00    +0.000 A 
BRANCH  13  15
ATOM     15  O3* UNL     1      -0.812 -39.608  -5.391  0.00  0.00    +0.000 OA
ATOM     16  H3* UNL     1      -0.834 -39.720  -6.357  0.00  0.00    +0.000 HD
ENDBRANCH  13  15
BRANCH  12  17
ATOM     17  C5* UNL     1      -0.714 -38.361  -2.631  0.00  0.00    +0.000 C 
BRANCH  17  18
ATOM     18  O5* UNL     1      -0.008 -38.765  -1.580  0.00  0.00    +0.000 OA
ATOM     19  H5* UNL     1      -0.412 -38.440  -0.758  0.00  0.00    +0.000 HD
ENDBRANCH  17  18
ENDBRANCH  12  17
ENDBRANCH   3  10
BRANCH   7  20
ATOM     20  C   UNL     1      -4.980 -34.537  -8.756  0.00  0.00    +0.000 C 
ATOM     21  F   UNL     1      -4.987 -35.811  -9.220  0.00  0.00    +0.000 F 
ATOM     22  F   UNL     1      -6.286 -34.179  -8.616  0.00  0.00    +0.000 F 
ATOM     23  F   UNL     1      -4.477 -33.747  -9.738  0.00  0.00    +0.000 F 
ENDBRANCH   7  20
TORSDOF 5
ENDMDL
MODEL 9
REMARK VINA RESULT:      -4.6      3.230      5.737
REMARK  Name = Trifluridine.pdbqt.pdb
REMARK  5 active torsions:
REMARK  status: ('A' for Active; 'I' for Inactive)
REMARK    1  A    between atoms: N_3  and  C1*_10
REMARK    2  A    between atoms: C_7  and  C_20
REMARK    3  A    between atoms: C4*_12  and  C5*_15
REMARK    4  A    between atoms: C3*_13  and  O3*_18
REMARK    5  A    between atoms: C5*_15  and  O5*_16
REMARK                            x       y       z     vdW  Elec       q    Type
REMARK                         _______ _______ _______ _____ _____    ______ ____
ROOT
ATOM      1  O   UNL     1      -5.767 -33.959  -3.298  0.00  0.00    +0.000 OA
ATOM      2  O   UNL     1      -3.437 -37.681  -1.964  0.00  0.00    +0.000 OA
ATOM      3  N   UNL     1      -4.191 -34.885  -4.804  0.00  0.00    +0.000 N 
ATOM      4  N   UNL     1      -4.577 -35.826  -2.691  0.00  0.00    +0.000 N 
ATOM      5  C   UNL     1      -3.308 -35.898  -4.905  0.00  0.00    +0.000 A 
ATOM      6  C   UNL     1      -4.923 -34.796  -3.598  0.00  0.00    +0.000 A 
ATOM      7  C   UNL     1      -2.924 -36.869  -4.144  0.00  0.00    +0.000 A 
ATOM      8  C   UNL     1      -3.641 -36.857  -2.844  0.00  0.00    +0.000 A 
ATOM      9  H   UNL     1      -5.072 -35.806  -1.811  0.00  0.00    +0.000 HD
ENDROOT
BRANCH   3  10
ATOM     10  C1* UNL     1      -4.326 -34.013  -5.845  0.00  0.00    +0.000 A 
ATOM     11  O4* UNL     1      -4.780 -34.423  -7.104  0.00  0.00    +0.000 OA
ATOM     12  C4* UNL     1      -4.770 -33.291  -7.929  0.00  0.00    +0.000 A 
ATOM     13  C3* UNL     1      -4.304 -32.159  -7.169  0.00  0.00    +0.000 A 
ATOM     14  C2* UNL     1      -4.025 -32.637  -5.877  0.00  0.00    +0.000 A 
BRANCH  13  15
ATOM     15  O3* UNL     1      -3.624 -31.139  -7.772  0.00  0.00    +0.000 OA
ATOM     16  H3* UNL     1      -3.832 -31.094  -8.722  0.00  0.00    +0.000 HD
ENDBRANCH  13  15
BRANCH  12  17
ATOM     17  C5* UNL     1      -4.967 -33.370  -9.322  0.00  0.00    +0.000 C 
BRANCH  17  18
ATOM     18  O5* UNL     1      -5.152 -33.439 -10.636  0.00  0.00    +0.000 OA
ATOM     19  H5* UNL     1      -4.447 -32.957 -11.100  0.00  0.00    +0.000 HD
ENDBRANCH  17  18
ENDBRANCH  12  17
ENDBRANCH   3  10
BRANCH   7  20
ATOM     20  C   UNL     1      -1.910 -37.907  -4.373  0.00  0.00    +0.000 C 
ATOM     21  F   UNL     1      -1.476 -37.937  -5.658  0.00  0.00    +0.000 F 
ATOM     22  F   UNL     1      -0.803 -37.707  -3.606  0.00  0.00    +0.000 F 
ATOM     23  F   UNL     1      -2.360 -39.149  -4.066  0.00  0.00    +0.000 F 
ENDBRANCH   7  20
TORSDOF 5
ENDMDL
