MODEL 1
REMARK VINA RESULT:      -6.6      0.000      0.000
REMARK  Name = Troglitazone.pdbqt.pdb
REMARK  4 active torsions:
REMARK  status: ('A' for Active; 'I' for Inactive)
REMARK    1  A    between atoms: C_1  and  O_2
REMARK    2  A    between atoms: C_1  and  C_18
REMARK    3  A    between atoms: O_2  and  C_3
REMARK    4  A    between atoms: C_26  and  O_32
REMARK                            x       y       z     vdW  Elec       q    Type
REMARK                         _______ _______ _______ _____ _____    ______ ____
ROOT
ATOM      1  C   UNL     1      -7.200 -36.847   3.068  0.00  0.00    +0.000 C 
ENDROOT
BRANCH   1   2
ATOM      2  C   UNL     1      -6.364 -37.472   2.030  0.00  0.00    +0.000 C 
ATOM      3  O   UNL     1      -5.659 -38.601   2.662  0.00  0.00    +0.000 OA
ATOM      4  C   UNL     1      -4.369 -39.007   2.301  0.00  0.00    +0.000 A 
ATOM      5  C   UNL     1      -3.430 -38.172   1.627  0.00  0.00    +0.000 A 
ATOM      6  C   UNL     1      -3.979 -40.306   2.690  0.00  0.00    +0.000 A 
ATOM      7  C   UNL     1      -3.923 -36.883   1.300  0.00  0.00    +0.000 C 
ATOM      8  C   UNL     1      -2.141 -38.622   1.319  0.00  0.00    +0.000 A 
ATOM      9  C   UNL     1      -5.362 -36.550   1.509  0.00  0.00    +0.000 C 
ATOM     10  C   UNL     1      -1.770 -39.923   1.695  0.00  0.00    +0.000 A 
ATOM     11  C   UNL     1      -1.163 -37.714   0.603  0.00  0.00    +0.000 C 
ATOM     12  C   UNL     1      -2.679 -40.760   2.376  0.00  0.00    +0.000 A 
ATOM     13  C   UNL     1      -2.159 -42.148   2.749  0.00  0.00    +0.000 C 
ATOM     14  C   UNL     1      -4.972 -41.173   3.454  0.00  0.00    +0.000 C 
ATOM     15  C   UNL     1      -7.223 -38.066   0.886  0.00  0.00    +0.000 C 
BRANCH  10  16
ATOM     16  O   UNL     1      -0.499 -40.392   1.404  0.00  0.00    +0.000 OA
ATOM     17  H   UNL     1      -0.017 -39.688   0.916  0.00  0.00    +0.000 HD
ENDBRANCH  10  16
ENDBRANCH   1   2
BRANCH   1  18
ATOM     18  O   UNL     1      -7.964 -36.290   4.010  0.00  0.00    +0.000 OA
BRANCH  18  19
ATOM     19  C   UNL     1      -7.309 -35.400   4.826  0.00  0.00    +0.000 C 
ATOM     20  C   UNL     1      -7.758 -34.108   5.107  0.00  0.00    +0.000 C 
ATOM     21  C   UNL     1      -7.027 -33.280   5.955  0.00  0.00    +0.000 C 
ATOM     22  C   UNL     1      -5.843 -33.743   6.523  0.00  0.00    +0.000 C 
ATOM     23  C   UNL     1      -5.389 -35.031   6.245  0.00  0.00    +0.000 C 
ATOM     24  C   UNL     1      -6.123 -35.859   5.398  0.00  0.00    +0.000 C 
ATOM     25  C   UNL     1      -5.094 -32.899   7.391  0.00  0.00    +0.000 C 
ATOM     26  C   UNL     1      -4.342 -32.063   8.247  0.00  0.00    +0.000 C 
ATOM     27  S   UNL     1      -5.012 -30.998   9.423  0.00  0.00    +0.000 S 
ATOM     28  C   UNL     1      -3.426 -30.458   9.936  0.00  0.00    +0.000 C 
ATOM     29  O   UNL     1      -3.231 -29.641  10.820  0.00  0.00    +0.000 OA
ATOM     30  N   UNL     1      -2.468 -31.086   9.209  0.00  0.00    +0.000 N 
ATOM     31  C   UNL     1      -2.866 -31.987   8.267  0.00  0.00    +0.000 C 
ATOM     32  H   UNL     1      -1.491 -30.900   9.373  0.00  0.00    +0.000 HD
ATOM     33  O   UNL     1      -2.114 -32.632   7.556  0.00  0.00    +0.000 OA
ENDBRANCH  18  19
ENDBRANCH   1  18
TORSDOF 4
ENDMDL
MODEL 2
REMARK VINA RESULT:      -6.6      4.479      6.291
REMARK  Name = Troglitazone.pdbqt.pdb
REMARK  4 active torsions:
REMARK  status: ('A' for Active; 'I' for Inactive)
REMARK    1  A    between atoms: C_1  and  O_2
REMARK    2  A    between atoms: C_1  and  C_18
REMARK    3  A    between atoms: O_2  and  C_3
REMARK    4  A    between atoms: C_26  and  O_32
REMARK                            x       y       z     vdW  Elec       q    Type
REMARK                         _______ _______ _______ _____ _____    ______ ____
ROOT
ATOM      1  C   UNL     1     -10.534 -31.404   2.834  0.00  0.00    +0.000 C 
ENDROOT
BRANCH   1   2
ATOM      2  C   UNL     1     -10.568 -32.066   1.519  0.00  0.00    +0.000 C 
ATOM      3  O   UNL     1      -9.396 -32.956   1.452  0.00  0.00    +0.000 OA
ATOM      4  C   UNL     1      -8.695 -33.225   0.270  0.00  0.00    +0.000 A 
ATOM      5  C   UNL     1      -8.728 -32.387  -0.883  0.00  0.00    +0.000 A 
ATOM      6  C   UNL     1      -7.869 -34.368   0.266  0.00  0.00    +0.000 A 
ATOM      7  C   UNL     1      -9.578 -31.257  -0.762  0.00  0.00    +0.000 C 
ATOM      8  C   UNL     1      -7.981 -32.689  -2.028  0.00  0.00    +0.000 A 
ATOM      9  C   UNL     1     -10.469 -31.108   0.425  0.00  0.00    +0.000 C 
ATOM     10  C   UNL     1      -7.177 -33.839  -2.027  0.00  0.00    +0.000 A 
ATOM     11  C   UNL     1      -8.034 -31.781  -3.239  0.00  0.00    +0.000 C 
ATOM     12  C   UNL     1      -7.118 -34.673  -0.891  0.00  0.00    +0.000 A 
ATOM     13  C   UNL     1      -6.196 -35.887  -0.999  0.00  0.00    +0.000 C 
ATOM     14  C   UNL     1      -7.802 -35.230   1.521  0.00  0.00    +0.000 C 
ATOM     15  C   UNL     1     -11.821 -32.963   1.365  0.00  0.00    +0.000 C 
BRANCH  10  16
ATOM     16  O   UNL     1      -6.426 -34.159  -3.147  0.00  0.00    +0.000 OA
ATOM     17  H   UNL     1      -6.991 -34.037  -3.940  0.00  0.00    +0.000 HD
ENDBRANCH  10  16
ENDBRANCH   1   2
BRANCH   1  18
ATOM     18  O   UNL     1     -10.505 -30.794   4.021  0.00  0.00    +0.000 OA
BRANCH  18  19
ATOM     19  C   UNL     1      -9.426 -31.118   4.805  0.00  0.00    +0.000 C 
ATOM     20  C   UNL     1      -8.931 -32.413   4.973  0.00  0.00    +0.000 C 
ATOM     21  C   UNL     1      -7.823 -32.641   5.786  0.00  0.00    +0.000 C 
ATOM     22  C   UNL     1      -7.209 -31.573   6.434  0.00  0.00    +0.000 C 
ATOM     23  C   UNL     1      -7.698 -30.279   6.271  0.00  0.00    +0.000 C 
ATOM     24  C   UNL     1      -8.805 -30.052   5.456  0.00  0.00    +0.000 C 
ATOM     25  C   UNL     1      -6.075 -31.804   7.265  0.00  0.00    +0.000 C 
ATOM     26  C   UNL     1      -4.955 -32.028   8.097  0.00  0.00    +0.000 C 
ATOM     27  S   UNL     1      -3.681 -33.135   7.758  0.00  0.00    +0.000 S 
ATOM     28  C   UNL     1      -2.837 -32.721   9.237  0.00  0.00    +0.000 C 
ATOM     29  O   UNL     1      -1.775 -33.211   9.582  0.00  0.00    +0.000 OA
ATOM     30  N   UNL     1      -3.540 -31.784   9.922  0.00  0.00    +0.000 N 
ATOM     31  C   UNL     1      -4.706 -31.334   9.378  0.00  0.00    +0.000 C 
ATOM     32  H   UNL     1      -3.200 -31.423  10.799  0.00  0.00    +0.000 HD
ATOM     33  O   UNL     1      -5.427 -30.486   9.877  0.00  0.00    +0.000 OA
ENDBRANCH  18  19
ENDBRANCH   1  18
TORSDOF 4
ENDMDL
MODEL 3
REMARK VINA RESULT:      -6.5     12.760     16.091
REMARK  Name = Troglitazone.pdbqt.pdb
REMARK  4 active torsions:
REMARK  status: ('A' for Active; 'I' for Inactive)
REMARK    1  A    between atoms: C_1  and  O_2
REMARK    2  A    between atoms: C_1  and  C_18
REMARK    3  A    between atoms: O_2  and  C_3
REMARK    4  A    between atoms: C_26  and  O_32
REMARK                            x       y       z     vdW  Elec       q    Type
REMARK                         _______ _______ _______ _____ _____    ______ ____
ROOT
ATOM      1  C   UNL     1       0.369 -32.720 -11.262  0.00  0.00    +0.000 C 
ENDROOT
BRANCH   1   2
ATOM      2  C   UNL     1       1.837 -32.834 -11.223  0.00  0.00    +0.000 C 
ATOM      3  O   UNL     1       2.324 -31.827 -10.264  0.00  0.00    +0.000 OA
ATOM      4  C   UNL     1       3.544 -31.154 -10.403  0.00  0.00    +0.000 A 
ATOM      5  C   UNL     1       4.243 -31.018 -11.638  0.00  0.00    +0.000 A 
ATOM      6  C   UNL     1       4.062 -30.531  -9.248  0.00  0.00    +0.000 A 
ATOM      7  C   UNL     1       3.624 -31.670 -12.736  0.00  0.00    +0.000 C 
ATOM      8  C   UNL     1       5.445 -30.306 -11.724  0.00  0.00    +0.000 A 
ATOM      9  C   UNL     1       2.439 -32.551 -12.519  0.00  0.00    +0.000 C 
ATOM     10  C   UNL     1       5.961 -29.706 -10.564  0.00  0.00    +0.000 A 
ATOM     11  C   UNL     1       6.167 -30.177 -13.048  0.00  0.00    +0.000 C 
ATOM     12  C   UNL     1       5.276 -29.814  -9.335  0.00  0.00    +0.000 A 
ATOM     13  C   UNL     1       5.923 -29.107  -8.145  0.00  0.00    +0.000 C 
ATOM     14  C   UNL     1       3.282 -30.638  -7.943  0.00  0.00    +0.000 C 
ATOM     15  C   UNL     1       2.288 -34.215 -10.688  0.00  0.00    +0.000 C 
BRANCH  10  16
ATOM     16  O   UNL     1       7.147 -28.993 -10.622  0.00  0.00    +0.000 OA
ATOM     17  H   UNL     1       7.875 -29.625 -10.813  0.00  0.00    +0.000 HD
ENDBRANCH  10  16
ENDBRANCH   1   2
BRANCH   1  18
ATOM     18  O   UNL     1      -0.961 -32.624 -11.307  0.00  0.00    +0.000 OA
BRANCH  18  19
ATOM     19  C   UNL     1      -1.604 -33.044 -10.169  0.00  0.00    +0.000 C 
ATOM     20  C   UNL     1      -1.723 -34.378  -9.775  0.00  0.00    +0.000 C 
ATOM     21  C   UNL     1      -2.391 -34.705  -8.597  0.00  0.00    +0.000 C 
ATOM     22  C   UNL     1      -2.941 -33.697  -7.811  0.00  0.00    +0.000 C 
ATOM     23  C   UNL     1      -2.827 -32.364  -8.199  0.00  0.00    +0.000 C 
ATOM     24  C   UNL     1      -2.157 -32.038  -9.376  0.00  0.00    +0.000 C 
ATOM     25  C   UNL     1      -3.623 -34.029  -6.605  0.00  0.00    +0.000 C 
ATOM     26  C   UNL     1      -4.308 -34.353  -5.412  0.00  0.00    +0.000 C 
ATOM     27  S   UNL     1      -3.822 -35.571  -4.296  0.00  0.00    +0.000 S 
ATOM     28  C   UNL     1      -5.175 -35.235  -3.236  0.00  0.00    +0.000 C 
ATOM     29  O   UNL     1      -5.387 -35.818  -2.186  0.00  0.00    +0.000 OA
ATOM     30  N   UNL     1      -5.933 -34.238  -3.757  0.00  0.00    +0.000 N 
ATOM     31  C   UNL     1      -5.538 -33.684  -4.939  0.00  0.00    +0.000 C 
ATOM     32  H   UNL     1      -6.755 -33.908  -3.276  0.00  0.00    +0.000 HD
ATOM     33  O   UNL     1      -6.114 -32.774  -5.511  0.00  0.00    +0.000 OA
ENDBRANCH  18  19
ENDBRANCH   1  18
TORSDOF 4
ENDMDL
MODEL 4
REMARK VINA RESULT:      -6.3     27.865     29.925
REMARK  Name = Troglitazone.pdbqt.pdb
REMARK  4 active torsions:
REMARK  status: ('A' for Active; 'I' for Inactive)
REMARK    1  A    between atoms: C_1  and  O_2
REMARK    2  A    between atoms: C_1  and  C_18
REMARK    3  A    between atoms: O_2  and  C_3
REMARK    4  A    between atoms: C_26  and  O_32
REMARK                            x       y       z     vdW  Elec       q    Type
REMARK                         _______ _______ _______ _____ _____    ______ ____
ROOT
ATOM      1  C   UNL     1      -5.338 -12.997 -14.674  0.00  0.00    +0.000 C 
ENDROOT
BRANCH   1   2
ATOM      2  C   UNL     1      -5.343 -11.683 -14.009  0.00  0.00    +0.000 C 
ATOM      3  O   UNL     1      -3.937 -11.323 -13.752  0.00  0.00    +0.000 OA
ATOM      4  C   UNL     1      -3.520 -10.585 -12.638  0.00  0.00    +0.000 A 
ATOM      5  C   UNL     1      -4.275 -10.463 -11.434  0.00  0.00    +0.000 A 
ATOM      6  C   UNL     1      -2.246  -9.983 -12.714  0.00  0.00    +0.000 A 
ATOM      7  C   UNL     1      -5.532 -11.122 -11.462  0.00  0.00    +0.000 C 
ATOM      8  C   UNL     1      -3.793  -9.738 -10.338  0.00  0.00    +0.000 A 
ATOM      9  C   UNL     1      -6.039 -11.723 -12.730  0.00  0.00    +0.000 C 
ATOM     10  C   UNL     1      -2.532  -9.127 -10.432  0.00  0.00    +0.000 A 
ATOM     11  C   UNL     1      -4.615  -9.625  -9.072  0.00  0.00    +0.000 C 
ATOM     12  C   UNL     1      -1.763  -9.248 -11.609  0.00  0.00    +0.000 A 
ATOM     13  C   UNL     1      -0.400  -8.556 -11.590  0.00  0.00    +0.000 C 
ATOM     14  C   UNL     1      -1.426 -10.160 -13.986  0.00  0.00    +0.000 C 
ATOM     15  C   UNL     1      -5.926 -10.581 -14.928  0.00  0.00    +0.000 C 
BRANCH  10  16
ATOM     16  O   UNL     1      -2.031  -8.405  -9.362  0.00  0.00    +0.000 OA
ATOM     17  H   UNL     1      -1.299  -8.922  -8.959  0.00  0.00    +0.000 HD
ENDBRANCH  10  16
ENDBRANCH   1   2
BRANCH   1  18
ATOM     18  O   UNL     1      -5.340 -14.183 -15.284  0.00  0.00    +0.000 OA
BRANCH  18  19
ATOM     19  C   UNL     1      -4.206 -14.932 -15.086  0.00  0.00    +0.000 C 
ATOM     20  C   UNL     1      -2.904 -14.442 -15.210  0.00  0.00    +0.000 C 
ATOM     21  C   UNL     1      -1.815 -15.279 -14.981  0.00  0.00    +0.000 C 
ATOM     22  C   UNL     1      -2.026 -16.609 -14.628  0.00  0.00    +0.000 C 
ATOM     23  C   UNL     1      -3.322 -17.104 -14.503  0.00  0.00    +0.000 C 
ATOM     24  C   UNL     1      -4.411 -16.265 -14.731  0.00  0.00    +0.000 C 
ATOM     25  C   UNL     1      -0.914 -17.467 -14.392  0.00  0.00    +0.000 C 
ATOM     26  C   UNL     1       0.186 -18.325 -14.165  0.00  0.00    +0.000 C 
ATOM     27  S   UNL     1       1.636 -17.874 -13.353  0.00  0.00    +0.000 S 
ATOM     28  C   UNL     1       2.320 -19.476 -13.543  0.00  0.00    +0.000 C 
ATOM     29  O   UNL     1       3.419 -19.807 -13.131  0.00  0.00    +0.000 OA
ATOM     30  N   UNL     1       1.446 -20.275 -14.206  0.00  0.00    +0.000 N 
ATOM     31  C   UNL     1       0.249 -19.741 -14.581  0.00  0.00    +0.000 C 
ATOM     32  H   UNL     1       1.673 -21.237 -14.401  0.00  0.00    +0.000 HD
ATOM     33  O   UNL     1      -0.632 -20.347 -15.168  0.00  0.00    +0.000 OA
ENDBRANCH  18  19
ENDBRANCH   1  18
TORSDOF 4
ENDMDL
MODEL 5
REMARK VINA RESULT:      -6.2      9.630     13.184
REMARK  Name = Troglitazone.pdbqt.pdb
REMARK  4 active torsions:
REMARK  status: ('A' for Active; 'I' for Inactive)
REMARK    1  A    between atoms: C_1  and  O_2
REMARK    2  A    between atoms: C_1  and  C_18
REMARK    3  A    between atoms: O_2  and  C_3
REMARK    4  A    between atoms: C_26  and  O_32
REMARK                            x       y       z     vdW  Elec       q    Type
REMARK                         _______ _______ _______ _____ _____    ______ ____
ROOT
ATOM      1  C   UNL     1      -8.234 -35.419  -2.384  0.00  0.00    +0.000 C 
ENDROOT
BRANCH   1   2
ATOM      2  C   UNL     1      -9.418 -36.252  -2.651  0.00  0.00    +0.000 C 
ATOM      3  O   UNL     1     -10.006 -35.778  -3.915  0.00  0.00    +0.000 OA
ATOM      4  C   UNL     1     -11.381 -35.789  -4.182  0.00  0.00    +0.000 A 
ATOM      5  C   UNL     1     -12.387 -35.837  -3.172  0.00  0.00    +0.000 A 
ATOM      6  C   UNL     1     -11.767 -35.687  -5.534  0.00  0.00    +0.000 A 
ATOM      7  C   UNL     1     -11.885 -35.920  -1.848  0.00  0.00    +0.000 C 
ATOM      8  C   UNL     1     -13.749 -35.813  -3.496  0.00  0.00    +0.000 A 
ATOM      9  C   UNL     1     -10.426 -36.116  -1.606  0.00  0.00    +0.000 C 
ATOM     10  C   UNL     1     -14.122 -35.731  -4.847  0.00  0.00    +0.000 A 
ATOM     11  C   UNL     1     -14.797 -35.865  -2.405  0.00  0.00    +0.000 C 
ATOM     12  C   UNL     1     -13.142 -35.667  -5.860  0.00  0.00    +0.000 A 
ATOM     13  C   UNL     1     -13.666 -35.562  -7.292  0.00  0.00    +0.000 C 
ATOM     14  C   UNL     1     -10.685 -35.586  -6.602  0.00  0.00    +0.000 C 
ATOM     15  C   UNL     1      -9.034 -37.737  -2.865  0.00  0.00    +0.000 C 
BRANCH  10  16
ATOM     16  O   UNL     1     -15.463 -35.704  -5.194  0.00  0.00    +0.000 OA
ATOM     17  H   UNL     1     -15.951 -36.294  -4.579  0.00  0.00    +0.000 HD
ENDBRANCH  10  16
ENDBRANCH   1   2
BRANCH   1  18
ATOM     18  O   UNL     1      -7.161 -34.667  -2.131  0.00  0.00    +0.000 OA
BRANCH  18  19
ATOM     19  C   UNL     1      -6.337 -34.463  -3.211  0.00  0.00    +0.000 C 
ATOM     20  C   UNL     1      -5.124 -35.122  -3.415  0.00  0.00    +0.000 C 
ATOM     21  C   UNL     1      -4.359 -34.852  -4.547  0.00  0.00    +0.000 C 
ATOM     22  C   UNL     1      -4.808 -33.920  -5.479  0.00  0.00    +0.000 C 
ATOM     23  C   UNL     1      -6.018 -33.258  -5.281  0.00  0.00    +0.000 C 
ATOM     24  C   UNL     1      -6.782 -33.531  -4.148  0.00  0.00    +0.000 C 
ATOM     25  C   UNL     1      -4.029 -33.644  -6.638  0.00  0.00    +0.000 C 
ATOM     26  C   UNL     1      -3.257 -33.358  -7.787  0.00  0.00    +0.000 C 
ATOM     27  S   UNL     1      -2.393 -34.529  -8.709  0.00  0.00    +0.000 S 
ATOM     28  C   UNL     1      -1.816 -33.315  -9.834  0.00  0.00    +0.000 C 
ATOM     29  O   UNL     1      -1.103 -33.552 -10.794  0.00  0.00    +0.000 OA
ATOM     30  N   UNL     1      -2.283 -32.093  -9.473  0.00  0.00    +0.000 N 
ATOM     31  C   UNL     1      -3.086 -32.013  -8.374  0.00  0.00    +0.000 C 
ATOM     32  H   UNL     1      -2.053 -31.273 -10.012  0.00  0.00    +0.000 HD
ATOM     33  O   UNL     1      -3.585 -30.985  -7.948  0.00  0.00    +0.000 OA
ENDBRANCH  18  19
ENDBRANCH   1  18
TORSDOF 4
ENDMDL
MODEL 6
REMARK VINA RESULT:      -6.1      6.134     10.144
REMARK  Name = Troglitazone.pdbqt.pdb
REMARK  4 active torsions:
REMARK  status: ('A' for Active; 'I' for Inactive)
REMARK    1  A    between atoms: C_1  and  O_2
REMARK    2  A    between atoms: C_1  and  C_18
REMARK    3  A    between atoms: O_2  and  C_3
REMARK    4  A    between atoms: C_26  and  O_32
REMARK                            x       y       z     vdW  Elec       q    Type
REMARK                         _______ _______ _______ _____ _____    ______ ____
ROOT
ATOM      1  C   UNL     1     -10.327 -32.820   2.748  0.00  0.00    +0.000 C 
ENDROOT
BRANCH   1   2
ATOM      2  C   UNL     1      -9.845 -33.574   3.918  0.00  0.00    +0.000 C 
ATOM      3  O   UNL     1      -8.829 -32.740   4.583  0.00  0.00    +0.000 OA
ATOM      4  C   UNL     1      -7.713 -33.263   5.247  0.00  0.00    +0.000 A 
ATOM      5  C   UNL     1      -7.184 -34.566   5.012  0.00  0.00    +0.000 A 
ATOM      6  C   UNL     1      -7.054 -32.407   6.155  0.00  0.00    +0.000 A 
ATOM      7  C   UNL     1      -7.915 -35.333   4.067  0.00  0.00    +0.000 C 
ATOM      8  C   UNL     1      -6.044 -35.025   5.683  0.00  0.00    +0.000 A 
ATOM      9  C   UNL     1      -9.215 -34.831   3.533  0.00  0.00    +0.000 C 
ATOM     10  C   UNL     1      -5.408 -34.172   6.598  0.00  0.00    +0.000 A 
ATOM     11  C   UNL     1      -5.504 -36.414   5.414  0.00  0.00    +0.000 C 
ATOM     12  C   UNL     1      -5.906 -32.873   6.833  0.00  0.00    +0.000 A 
ATOM     13  C   UNL     1      -5.122 -32.028   7.837  0.00  0.00    +0.000 C 
ATOM     14  C   UNL     1      -7.597 -30.998   6.362  0.00  0.00    +0.000 C 
ATOM     15  C   UNL     1     -10.975 -33.810   4.949  0.00  0.00    +0.000 C 
BRANCH  10  16
ATOM     16  O   UNL     1      -4.277 -34.601   7.273  0.00  0.00    +0.000 OA
ATOM     17  H   UNL     1      -3.751 -35.162   6.663  0.00  0.00    +0.000 HD
ENDBRANCH  10  16
ENDBRANCH   1   2
BRANCH   1  18
ATOM     18  O   UNL     1     -10.773 -32.135   1.694  0.00  0.00    +0.000 OA
BRANCH  18  19
ATOM     19  C   UNL     1     -10.154 -32.442   0.507  0.00  0.00    +0.000 C 
ATOM     20  C   UNL     1      -9.619 -31.500  -0.372  0.00  0.00    +0.000 C 
ATOM     21  C   UNL     1      -9.003 -31.910  -1.552  0.00  0.00    +0.000 C 
ATOM     22  C   UNL     1      -8.922 -33.267  -1.855  0.00  0.00    +0.000 C 
ATOM     23  C   UNL     1      -9.455 -34.213  -0.982  0.00  0.00    +0.000 C 
ATOM     24  C   UNL     1     -10.070 -33.800   0.199  0.00  0.00    +0.000 C 
ATOM     25  C   UNL     1      -8.292 -33.689  -3.060  0.00  0.00    +0.000 C 
ATOM     26  C   UNL     1      -7.675 -34.115  -4.258  0.00  0.00    +0.000 C 
ATOM     27  S   UNL     1      -6.248 -33.424  -4.931  0.00  0.00    +0.000 S 
ATOM     28  C   UNL     1      -6.265 -34.538  -6.283  0.00  0.00    +0.000 C 
ATOM     29  O   UNL     1      -5.432 -34.551  -7.173  0.00  0.00    +0.000 OA
ATOM     30  N   UNL     1      -7.332 -35.371  -6.181  0.00  0.00    +0.000 N 
ATOM     31  C   UNL     1      -8.157 -35.225  -5.105  0.00  0.00    +0.000 C 
ATOM     32  H   UNL     1      -7.498 -36.084  -6.873  0.00  0.00    +0.000 HD
ATOM     33  O   UNL     1      -9.140 -35.912  -4.882  0.00  0.00    +0.000 OA
ENDBRANCH  18  19
ENDBRANCH   1  18
TORSDOF 4
ENDMDL
MODEL 7
REMARK VINA RESULT:      -6.0     26.794     28.784
REMARK  Name = Troglitazone.pdbqt.pdb
REMARK  4 active torsions:
REMARK  status: ('A' for Active; 'I' for Inactive)
REMARK    1  A    between atoms: C_1  and  O_2
REMARK    2  A    between atoms: C_1  and  C_18
REMARK    3  A    between atoms: O_2  and  C_3
REMARK    4  A    between atoms: C_26  and  O_32
REMARK                            x       y       z     vdW  Elec       q    Type
REMARK                         _______ _______ _______ _____ _____    ______ ____
ROOT
ATOM      1  C   UNL     1      -6.148 -18.301 -16.721  0.00  0.00    +0.000 C 
ENDROOT
BRANCH   1   2
ATOM      2  C   UNL     1      -6.908 -17.069 -16.993  0.00  0.00    +0.000 C 
ATOM      3  O   UNL     1      -6.390 -16.031 -16.085  0.00  0.00    +0.000 OA
ATOM      4  C   UNL     1      -7.183 -15.013 -15.541  0.00  0.00    +0.000 A 
ATOM      5  C   UNL     1      -8.603 -15.083 -15.431  0.00  0.00    +0.000 A 
ATOM      6  C   UNL     1      -6.507 -13.887 -15.026  0.00  0.00    +0.000 A 
ATOM      7  C   UNL     1      -9.175 -16.267 -15.966  0.00  0.00    +0.000 C 
ATOM      8  C   UNL     1      -9.343 -14.047 -14.848  0.00  0.00    +0.000 A 
ATOM      9  C   UNL     1      -8.330 -17.235 -16.723  0.00  0.00    +0.000 C 
ATOM     10  C   UNL     1      -8.662 -12.923 -14.356  0.00  0.00    +0.000 A 
ATOM     11  C   UNL     1     -10.850 -14.147 -14.743  0.00  0.00    +0.000 C 
ATOM     12  C   UNL     1      -7.256 -12.841 -14.441  0.00  0.00    +0.000 A 
ATOM     13  C   UNL     1      -6.622 -11.579 -13.857  0.00  0.00    +0.000 C 
ATOM     14  C   UNL     1      -4.986 -13.844 -15.103  0.00  0.00    +0.000 C 
ATOM     15  C   UNL     1      -6.670 -16.559 -18.436  0.00  0.00    +0.000 C 
BRANCH  10  16
ATOM     16  O   UNL     1      -9.370 -11.885 -13.772  0.00  0.00    +0.000 OA
ATOM     17  H   UNL     1     -10.101 -12.272 -13.244  0.00  0.00    +0.000 HD
ENDBRANCH  10  16
ENDBRANCH   1   2
BRANCH   1  18
ATOM     18  O   UNL     1      -5.468 -19.420 -16.469  0.00  0.00    +0.000 OA
BRANCH  18  19
ATOM     19  C   UNL     1      -4.174 -19.224 -16.055  0.00  0.00    +0.000 C 
ATOM     20  C   UNL     1      -3.129 -20.124 -16.274  0.00  0.00    +0.000 C 
ATOM     21  C   UNL     1      -1.845 -19.832 -15.821  0.00  0.00    +0.000 C 
ATOM     22  C   UNL     1      -1.604 -18.639 -15.146  0.00  0.00    +0.000 C 
ATOM     23  C   UNL     1      -2.642 -17.737 -14.923  0.00  0.00    +0.000 C 
ATOM     24  C   UNL     1      -3.926 -18.030 -15.379  0.00  0.00    +0.000 C 
ATOM     25  C   UNL     1      -0.291 -18.338 -14.683  0.00  0.00    +0.000 C 
ATOM     26  C   UNL     1       1.007 -18.036 -14.213  0.00  0.00    +0.000 C 
ATOM     27  S   UNL     1       2.465 -18.366 -15.069  0.00  0.00    +0.000 S 
ATOM     28  C   UNL     1       3.449 -17.679 -13.791  0.00  0.00    +0.000 C 
ATOM     29  O   UNL     1       4.666 -17.610 -13.823  0.00  0.00    +0.000 OA
ATOM     30  N   UNL     1       2.654 -17.241 -12.783  0.00  0.00    +0.000 N 
ATOM     31  C   UNL     1       1.306 -17.383 -12.922  0.00  0.00    +0.000 C 
ATOM     32  H   UNL     1       3.051 -16.810 -11.963  0.00  0.00    +0.000 HD
ATOM     33  O   UNL     1       0.478 -17.021 -12.103  0.00  0.00    +0.000 OA
ENDBRANCH  18  19
ENDBRANCH   1  18
TORSDOF 4
ENDMDL
MODEL 8
REMARK VINA RESULT:      -5.9     12.786     16.725
REMARK  Name = Troglitazone.pdbqt.pdb
REMARK  4 active torsions:
REMARK  status: ('A' for Active; 'I' for Inactive)
REMARK    1  A    between atoms: C_1  and  O_2
REMARK    2  A    between atoms: C_1  and  C_18
REMARK    3  A    between atoms: O_2  and  C_3
REMARK    4  A    between atoms: C_26  and  O_32
REMARK                            x       y       z     vdW  Elec       q    Type
REMARK                         _______ _______ _______ _____ _____    ______ ____
ROOT
ATOM      1  C   UNL     1      -0.151 -37.578  -9.517  0.00  0.00    +0.000 C 
ENDROOT
BRANCH   1   2
ATOM      2  C   UNL     1      -1.535 -37.193  -9.193  0.00  0.00    +0.000 C 
ATOM      3  O   UNL     1      -1.586 -35.720  -9.194  0.00  0.00    +0.000 OA
ATOM      4  C   UNL     1      -2.415 -34.975  -8.346  0.00  0.00    +0.000 A 
ATOM      5  C   UNL     1      -2.965 -35.474  -7.129  0.00  0.00    +0.000 A 
ATOM      6  C   UNL     1      -2.657 -33.634  -8.711  0.00  0.00    +0.000 A 
ATOM      7  C   UNL     1      -2.642 -36.829  -6.853  0.00  0.00    +0.000 C 
ATOM      8  C   UNL     1      -3.762 -34.672  -6.304  0.00  0.00    +0.000 A 
ATOM      9  C   UNL     1      -1.934 -37.657  -7.871  0.00  0.00    +0.000 C 
ATOM     10  C   UNL     1      -4.012 -33.345  -6.686  0.00  0.00    +0.000 A 
ATOM     11  C   UNL     1      -4.334 -35.228  -5.016  0.00  0.00    +0.000 C 
ATOM     12  C   UNL     1      -3.464 -32.827  -7.879  0.00  0.00    +0.000 A 
ATOM     13  C   UNL     1      -3.790 -31.365  -8.184  0.00  0.00    +0.000 C 
ATOM     14  C   UNL     1      -2.024 -33.095  -9.988  0.00  0.00    +0.000 C 
ATOM     15  C   UNL     1      -2.530 -37.675 -10.278  0.00  0.00    +0.000 C 
BRANCH  10  16
ATOM     16  O   UNL     1      -4.796 -32.530  -5.887  0.00  0.00    +0.000 OA
ATOM     17  H   UNL     1      -5.105 -33.060  -5.120  0.00  0.00    +0.000 HD
ENDBRANCH  10  16
ENDBRANCH   1   2
BRANCH   1  18
ATOM     18  O   UNL     1       1.103 -37.934  -9.801  0.00  0.00    +0.000 OA
BRANCH  18  19
ATOM     19  C   UNL     1       1.943 -36.888 -10.094  0.00  0.00    +0.000 C 
ATOM     20  C   UNL     1       3.327 -37.003 -10.240  0.00  0.00    +0.000 C 
ATOM     21  C   UNL     1       4.096 -35.882 -10.545  0.00  0.00    +0.000 C 
ATOM     22  C   UNL     1       3.481 -34.644 -10.706  0.00  0.00    +0.000 C 
ATOM     23  C   UNL     1       2.100 -34.523 -10.562  0.00  0.00    +0.000 C 
ATOM     24  C   UNL     1       1.333 -35.645 -10.257  0.00  0.00    +0.000 C 
ATOM     25  C   UNL     1       4.265 -33.497 -11.020  0.00  0.00    +0.000 C 
ATOM     26  C   UNL     1       5.038 -32.354 -11.323  0.00  0.00    +0.000 C 
ATOM     27  S   UNL     1       6.377 -32.329 -12.406  0.00  0.00    +0.000 S 
ATOM     28  C   UNL     1       6.640 -30.615 -12.148  0.00  0.00    +0.000 C 
ATOM     29  O   UNL     1       7.516 -29.965 -12.692  0.00  0.00    +0.000 OA
ATOM     30  N   UNL     1       5.727 -30.137 -11.265  0.00  0.00    +0.000 N 
ATOM     31  C   UNL     1       4.804 -31.006 -10.764  0.00  0.00    +0.000 C 
ATOM     32  H   UNL     1       5.725 -29.165 -11.001  0.00  0.00    +0.000 HD
ATOM     33  O   UNL     1       3.921 -30.709  -9.978  0.00  0.00    +0.000 OA
ENDBRANCH  18  19
ENDBRANCH   1  18
TORSDOF 4
ENDMDL
MODEL 9
REMARK VINA RESULT:      -5.9     11.765     14.698
REMARK  Name = Troglitazone.pdbqt.pdb
REMARK  4 active torsions:
REMARK  status: ('A' for Active; 'I' for Inactive)
REMARK    1  A    between atoms: C_1  and  O_2
REMARK    2  A    between atoms: C_1  and  C_18
REMARK    3  A    between atoms: O_2  and  C_3
REMARK    4  A    between atoms: C_26  and  O_32
REMARK                            x       y       z     vdW  Elec       q    Type
REMARK                         _______ _______ _______ _____ _____    ______ ____
ROOT
ATOM      1  C   UNL     1       6.037 -30.263  -2.131  0.00  0.00    +0.000 C 
ENDROOT
BRANCH   1   2
ATOM      2  C   UNL     1       5.188 -29.254  -2.787  0.00  0.00    +0.000 C 
ATOM      3  O   UNL     1       6.056 -28.477  -3.688  0.00  0.00    +0.000 OA
ATOM      4  C   UNL     1       5.869 -27.115  -3.957  0.00  0.00    +0.000 A 
ATOM      5  C   UNL     1       5.137 -26.229  -3.113  0.00  0.00    +0.000 A 
ATOM      6  C   UNL     1       6.504 -26.602  -5.108  0.00  0.00    +0.000 A 
ATOM      7  C   UNL     1       4.556 -26.850  -1.977  0.00  0.00    +0.000 C 
ATOM      8  C   UNL     1       5.010 -24.869  -3.417  0.00  0.00    +0.000 A 
ATOM      9  C   UNL     1       4.596 -28.333  -1.825  0.00  0.00    +0.000 C 
ATOM     10  C   UNL     1       5.629 -24.373  -4.575  0.00  0.00    +0.000 A 
ATOM     11  C   UNL     1       4.225 -23.950  -2.504  0.00  0.00    +0.000 C 
ATOM     12  C   UNL     1       6.372 -25.229  -5.414  0.00  0.00    +0.000 A 
ATOM     13  C   UNL     1       7.016 -24.574  -6.636  0.00  0.00    +0.000 C 
ATOM     14  C   UNL     1       7.327 -27.546  -5.976  0.00  0.00    +0.000 C 
ATOM     15  C   UNL     1       4.101 -29.912  -3.672  0.00  0.00    +0.000 C 
BRANCH  10  16
ATOM     16  O   UNL     1       5.520 -23.030  -4.897  0.00  0.00    +0.000 OA
ATOM     17  H   UNL     1       6.411 -22.623  -4.820  0.00  0.00    +0.000 HD
ENDBRANCH  10  16
ENDBRANCH   1   2
BRANCH   1  18
ATOM     18  O   UNL     1       6.807 -31.182  -1.547  0.00  0.00    +0.000 OA
BRANCH  18  19
ATOM     19  C   UNL     1       6.378 -31.586  -0.307  0.00  0.00    +0.000 C 
ATOM     20  C   UNL     1       7.197 -31.687   0.820  0.00  0.00    +0.000 C 
ATOM     21  C   UNL     1       6.666 -32.101   2.039  0.00  0.00    +0.000 C 
ATOM     22  C   UNL     1       5.313 -32.415   2.134  0.00  0.00    +0.000 C 
ATOM     23  C   UNL     1       4.490 -32.316   1.014  0.00  0.00    +0.000 C 
ATOM     24  C   UNL     1       5.023 -31.901  -0.205  0.00  0.00    +0.000 C 
ATOM     25  C   UNL     1       4.767 -32.836   3.380  0.00  0.00    +0.000 C 
ATOM     26  C   UNL     1       4.221 -33.263   4.611  0.00  0.00    +0.000 C 
ATOM     27  S   UNL     1       4.636 -32.612   6.151  0.00  0.00    +0.000 S 
ATOM     28  C   UNL     1       3.524 -33.685   6.979  0.00  0.00    +0.000 C 
ATOM     29  O   UNL     1       3.349 -33.695   8.185  0.00  0.00    +0.000 OA
ATOM     30  N   UNL     1       2.898 -34.483   6.078  0.00  0.00    +0.000 N 
ATOM     31  C   UNL     1       3.204 -34.325   4.759  0.00  0.00    +0.000 C 
ATOM     32  H   UNL     1       2.217 -35.163   6.377  0.00  0.00    +0.000 HD
ATOM     33  O   UNL     1       2.707 -34.962   3.846  0.00  0.00    +0.000 OA
ENDBRANCH  18  19
ENDBRANCH   1  18
TORSDOF 4
ENDMDL
