MODEL 1
REMARK VINA RESULT:      -5.8      0.000      0.000
REMARK  Name = 
REMARK  19 active torsions:
REMARK  status: ('A' for Active; 'I' for Inactive)
REMARK    1  A    between atoms: O_1  and  C_20
REMARK    2  A    between atoms: O_1  and  C_36
REMARK    3  A    between atoms: O_2  and  C_18
REMARK    4  A    between atoms: O_3  and  C_28
REMARK    5  A    between atoms: O_3  and  C_42
REMARK    6  A    between atoms: O_5  and  C_34
REMARK    7  A    between atoms: O_5  and  C_50
REMARK    8  A    between atoms: O_7  and  C_40
REMARK    9  A    between atoms: O_7  and  C_56
REMARK   10  A    between atoms: O_9  and  C_46
REMARK   11  A    between atoms: N_11  and  C_30
REMARK   12  A    between atoms: C_17  and  C_23
REMARK   13  A    between atoms: C_18  and  C_28
REMARK   14  A    between atoms: C_23  and  C_32
REMARK   15  A    between atoms: C_33  and  C_35
REMARK   16  A    between atoms: C_35  and  C_40
REMARK   17  A    between atoms: C_36  and  C_41
REMARK   18  A    between atoms: C_46  and  C_53
REMARK   19  A    between atoms: C_53  and  C_57
REMARK                            x       y       z     vdW  Elec       q    Type
REMARK                         _______ _______ _______ _____ _____    ______ ____
ROOT
ATOM      1  N   UNL     1      -3.089 -34.021  -7.249  0.00  0.00    +0.000 NA
ATOM      2  N   UNL     1      -3.459 -38.280  -9.372  0.00  0.00    +0.000 N 
ATOM      3  C   UNL     1      -3.308 -36.096  -8.290  0.00  0.00    +0.000 C 
ATOM      4  C   UNL     1      -4.016 -34.737  -8.146  0.00  0.00    +0.000 C 
ATOM      5  C   UNL     1      -4.285 -37.158  -8.834  0.00  0.00    +0.000 C 
ATOM      6  C   UNL     1      -5.541 -34.852  -7.682  0.00  0.00    +0.000 C 
ATOM      7  C   UNL     1      -5.484 -37.493  -7.932  0.00  0.00    +0.000 C 
ATOM      8  C   UNL     1      -2.595 -36.320  -6.943  0.00  0.00    +0.000 C 
ATOM      9  C   UNL     1      -5.899 -36.270  -7.051  0.00  0.00    +0.000 C 
ATOM     10  C   UNL     1      -2.256 -36.257  -9.369  0.00  0.00    +0.000 A 
ATOM     11  C   UNL     1      -2.611 -34.962  -6.244  0.00  0.00    +0.000 C 
ATOM     12  C   UNL     1      -2.356 -37.547  -9.909  0.00  0.00    +0.000 A 
ATOM     13  C   UNL     1      -5.896 -33.781  -6.648  0.00  0.00    +0.000 C 
ATOM     14  C   UNL     1      -3.609 -32.778  -6.700  0.00  0.00    +0.000 C 
ATOM     15  C   UNL     1      -5.026 -32.853  -6.228  0.00  0.00    +0.000 C 
ATOM     16  C   UNL     1      -1.275 -35.360  -9.781  0.00  0.00    +0.000 A 
ATOM     17  C   UNL     1      -4.097 -39.195 -10.317  0.00  0.00    +0.000 C 
ATOM     18  C   UNL     1      -1.435 -37.966 -10.849  0.00  0.00    +0.000 A 
ATOM     19  C   UNL     1      -0.324 -35.755 -10.742  0.00  0.00    +0.000 A 
ATOM     20  C   UNL     1      -0.422 -37.082 -11.256  0.00  0.00    +0.000 A 
ENDROOT
BRANCH  19  23
ATOM     21  N   UNL     1       3.802 -31.763 -12.012  0.00  0.00    +0.000 NA
ATOM     22  N   UNL     1       2.386 -36.512 -10.213  0.00  0.00    +0.000 N 
ATOM     23  C   UNL     1       0.827 -34.787 -11.227  0.00  0.00    +0.000 C 
ATOM     24  C   UNL     1       0.906 -33.476 -10.317  0.00  0.00    +0.000 C 
ATOM     25  C   UNL     1       2.223 -35.492 -11.135  0.00  0.00    +0.000 A 
ATOM     26  C   UNL     1       2.177 -32.619 -10.440  0.00  0.00    +0.000 C 
ATOM     27  C   UNL     1       2.275 -31.468  -9.440  0.00  0.00    +0.000 C 
ATOM     28  C   UNL     1       2.383 -32.006 -11.817  0.00  0.00    +0.000 C 
ATOM     29  C   UNL     1       3.486 -35.293 -11.722  0.00  0.00    +0.000 A 
ATOM     30  C   UNL     1       3.605 -30.674  -9.607  0.00  0.00    +0.000 C 
ATOM     31  C   UNL     1       4.321 -30.803 -11.014  0.00  0.00    +0.000 C 
ATOM     32  C   UNL     1       3.971 -34.270 -12.737  0.00  0.00    +0.000 C 
ATOM     33  C   UNL     1       4.618 -33.002 -12.102  0.00  0.00    +0.000 C 
ATOM     34  C   UNL     1       4.377 -36.272 -11.144  0.00  0.00    +0.000 A 
ATOM     35  C   UNL     1       3.659 -37.009 -10.215  0.00  0.00    +0.000 A 
ATOM     36  C   UNL     1       5.745 -36.581 -11.323  0.00  0.00    +0.000 A 
ATOM     37  C   UNL     1       4.221 -38.045  -9.457  0.00  0.00    +0.000 A 
ATOM     38  C   UNL     1       6.327 -37.613 -10.577  0.00  0.00    +0.000 A 
ATOM     39  C   UNL     1       5.573 -38.334  -9.658  0.00  0.00    +0.000 A 
ATOM     40  H   UNL     1       1.650 -36.870  -9.618  0.00  0.00    +0.000 HD
BRANCH  23  42
ATOM     41  O   UNL     1       0.981 -34.803 -13.727  0.00  0.00    +0.000 OA
ATOM     42  C   UNL     1       0.449 -34.408 -12.697  0.00  0.00    +0.000 C 
BRANCH  42  43
ATOM     43  O   UNL     1      -0.630 -33.555 -12.698  0.00  0.00    +0.000 OA
ATOM     44  C   UNL     1      -0.690 -32.699 -13.838  0.00  0.00    +0.000 C 
ENDBRANCH  42  43
ENDBRANCH  23  42
BRANCH  30  45
ATOM     45  O   UNL     1       3.242 -29.281  -9.438  0.00  0.00    +0.000 OA
ATOM     46  H   UNL     1       2.269 -29.232  -9.442  0.00  0.00    +0.000 HD
ENDBRANCH  30  45
BRANCH  30  47
ATOM     47  C   UNL     1       4.579 -30.947  -8.437  0.00  0.00    +0.000 C 
ATOM     48  C   UNL     1       4.017 -30.792  -7.035  0.00  0.00    +0.000 C 
ENDBRANCH  30  47
ENDBRANCH  19  23
BRANCH   7  49
ATOM     49  O   UNL     1      -6.604 -37.731  -8.845  0.00  0.00    +0.000 OA
ATOM     50  H   UNL     1      -6.241 -37.630  -9.749  0.00  0.00    +0.000 HD
ENDBRANCH   7  49
BRANCH   7  52
ATOM     51  O   UNL     1      -4.203 -39.141  -6.586  0.00  0.00    +0.000 OA
ATOM     52  C   UNL     1      -5.254 -38.776  -7.095  0.00  0.00    +0.000 C 
BRANCH  52  53
ATOM     53  O   UNL     1      -6.447 -39.436  -6.926  0.00  0.00    +0.000 OA
ATOM     54  C   UNL     1      -6.490 -40.269  -5.766  0.00  0.00    +0.000 C 
ENDBRANCH  52  53
ENDBRANCH   7  52
BRANCH  20  55
ATOM     55  O   UNL     1       0.481 -37.449 -12.222  0.00  0.00    +0.000 OA
ATOM     56  C   UNL     1       0.620 -38.853 -12.420  0.00  0.00    +0.000 C 
ENDBRANCH  20  55
BRANCH   6  57
ATOM     57  C   UNL     1      -6.489 -34.601  -8.912  0.00  0.00    +0.000 C 
ATOM     58  C   UNL     1      -5.823 -34.104 -10.197  0.00  0.00    +0.000 C 
ENDBRANCH   6  57
BRANCH   9  59
ATOM     59  O   UNL     1      -5.321 -36.333  -5.725  0.00  0.00    +0.000 OA
BRANCH  59  61
ATOM     60  O   UNL     1      -7.277 -36.959  -4.710  0.00  0.00    +0.000 OA
ATOM     61  C   UNL     1      -6.181 -36.417  -4.675  0.00  0.00    +0.000 C 
ATOM     62  C   UNL     1      -5.578 -35.782  -3.461  0.00  0.00    +0.000 C 
ENDBRANCH  59  61
ENDBRANCH   9  59
TORSDOF 12
ENDMDL
MODEL 2
REMARK VINA RESULT:      -5.7      5.673     13.527
REMARK  Name = 
REMARK  19 active torsions:
REMARK  status: ('A' for Active; 'I' for Inactive)
REMARK    1  A    between atoms: O_1  and  C_20
REMARK    2  A    between atoms: O_1  and  C_36
REMARK    3  A    between atoms: O_2  and  C_18
REMARK    4  A    between atoms: O_3  and  C_28
REMARK    5  A    between atoms: O_3  and  C_42
REMARK    6  A    between atoms: O_5  and  C_34
REMARK    7  A    between atoms: O_5  and  C_50
REMARK    8  A    between atoms: O_7  and  C_40
REMARK    9  A    between atoms: O_7  and  C_56
REMARK   10  A    between atoms: O_9  and  C_46
REMARK   11  A    between atoms: N_11  and  C_30
REMARK   12  A    between atoms: C_17  and  C_23
REMARK   13  A    between atoms: C_18  and  C_28
REMARK   14  A    between atoms: C_23  and  C_32
REMARK   15  A    between atoms: C_33  and  C_35
REMARK   16  A    between atoms: C_35  and  C_40
REMARK   17  A    between atoms: C_36  and  C_41
REMARK   18  A    between atoms: C_46  and  C_53
REMARK   19  A    between atoms: C_53  and  C_57
REMARK                            x       y       z     vdW  Elec       q    Type
REMARK                         _______ _______ _______ _____ _____    ______ ____
ROOT
ATOM      1  N   UNL     1      -3.932 -36.124  -3.135  0.00  0.00    +0.000 NA
ATOM      2  N   UNL     1      -8.041 -35.494  -5.480  0.00  0.00    +0.000 N 
ATOM      3  C   UNL     1      -5.927 -35.840  -4.309  0.00  0.00    +0.000 C 
ATOM      4  C   UNL     1      -4.733 -36.801  -4.173  0.00  0.00    +0.000 C 
ATOM      5  C   UNL     1      -6.687 -36.107  -5.623  0.00  0.00    +0.000 C 
ATOM      6  C   UNL     1      -4.008 -37.127  -5.559  0.00  0.00    +0.000 C 
ATOM      7  C   UNL     1      -5.898 -35.854  -6.919  0.00  0.00    +0.000 C 
ATOM      8  C   UNL     1      -5.349 -34.441  -4.020  0.00  0.00    +0.000 C 
ATOM      9  C   UNL     1      -4.365 -36.089  -6.713  0.00  0.00    +0.000 C 
ATOM     10  C   UNL     1      -7.113 -36.018  -3.382  0.00  0.00    +0.000 A 
ATOM     11  C   UNL     1      -3.982 -34.689  -3.386  0.00  0.00    +0.000 C 
ATOM     12  C   UNL     1      -8.289 -35.749  -4.096  0.00  0.00    +0.000 A 
ATOM     13  C   UNL     1      -2.485 -37.144  -5.407  0.00  0.00    +0.000 C 
ATOM     14  C   UNL     1      -2.588 -36.651  -2.961  0.00  0.00    +0.000 C 
ATOM     15  C   UNL     1      -1.865 -36.943  -4.236  0.00  0.00    +0.000 C 
ATOM     16  C   UNL     1      -7.130 -36.330  -2.027  0.00  0.00    +0.000 A 
ATOM     17  C   UNL     1      -9.093 -35.962  -6.382  0.00  0.00    +0.000 C 
ATOM     18  C   UNL     1      -9.503 -35.752  -3.437  0.00  0.00    +0.000 A 
ATOM     19  C   UNL     1      -8.352 -36.347  -1.327  0.00  0.00    +0.000 A 
ATOM     20  C   UNL     1      -9.535 -36.040  -2.063  0.00  0.00    +0.000 A 
ENDROOT
BRANCH  19  23
ATOM     21  N   UNL     1      -7.956 -37.482   4.429  0.00  0.00    +0.000 NA
ATOM     22  N   UNL     1      -9.222 -34.272   0.443  0.00  0.00    +0.000 N 
ATOM     23  C   UNL     1      -8.427 -36.670   0.219  0.00  0.00    +0.000 C 
ATOM     24  C   UNL     1      -6.969 -36.754   0.866  0.00  0.00    +0.000 C 
ATOM     25  C   UNL     1      -9.204 -35.546   0.985  0.00  0.00    +0.000 A 
ATOM     26  C   UNL     1      -6.886 -36.713   2.401  0.00  0.00    +0.000 C 
ATOM     27  C   UNL     1      -5.469 -36.639   2.966  0.00  0.00    +0.000 C 
ATOM     28  C   UNL     1      -7.559 -37.890   3.093  0.00  0.00    +0.000 C 
ATOM     29  C   UNL     1      -9.867 -35.453   2.222  0.00  0.00    +0.000 A 
ATOM     30  C   UNL     1      -5.475 -36.563   4.523  0.00  0.00    +0.000 C 
ATOM     31  C   UNL     1      -6.780 -37.099   5.241  0.00  0.00    +0.000 C 
ATOM     32  C   UNL     1     -10.101 -36.482   3.317  0.00  0.00    +0.000 C 
ATOM     33  C   UNL     1      -9.032 -36.457   4.451  0.00  0.00    +0.000 C 
ATOM     34  C   UNL     1     -10.318 -34.087   2.355  0.00  0.00    +0.000 A 
ATOM     35  C   UNL     1      -9.901 -33.386   1.233  0.00  0.00    +0.000 A 
ATOM     36  C   UNL     1     -11.034 -33.381   3.349  0.00  0.00    +0.000 A 
ATOM     37  C   UNL     1     -10.163 -32.025   1.037  0.00  0.00    +0.000 A 
ATOM     38  C   UNL     1     -11.308 -32.020   3.173  0.00  0.00    +0.000 A 
ATOM     39  C   UNL     1     -10.877 -31.353   2.031  0.00  0.00    +0.000 A 
ATOM     40  H   UNL     1      -8.804 -34.020  -0.443  0.00  0.00    +0.000 HD
BRANCH  23  42
ATOM     41  O   UNL     1     -10.297 -38.276   0.669  0.00  0.00    +0.000 OA
ATOM     42  C   UNL     1      -9.146 -38.057   0.311  0.00  0.00    +0.000 C 
BRANCH  42  43
ATOM     43  O   UNL     1      -8.297 -39.053  -0.110  0.00  0.00    +0.000 OA
ATOM     44  C   UNL     1      -8.874 -40.358  -0.079  0.00  0.00    +0.000 C 
ENDBRANCH  42  43
ENDBRANCH  23  42
BRANCH  30  45
ATOM     45  O   UNL     1      -4.374 -37.405   4.949  0.00  0.00    +0.000 OA
ATOM     46  H   UNL     1      -3.604 -37.176   4.400  0.00  0.00    +0.000 HD
ENDBRANCH  30  45
BRANCH  30  47
ATOM     47  C   UNL     1      -5.078 -35.155   5.024  0.00  0.00    +0.000 C 
ATOM     48  C   UNL     1      -6.162 -34.354   5.724  0.00  0.00    +0.000 C 
ENDBRANCH  30  47
ENDBRANCH  19  23
BRANCH   7  49
ATOM     49  O   UNL     1      -6.342 -36.890  -7.854  0.00  0.00    +0.000 OA
ATOM     50  H   UNL     1      -5.613 -37.001  -8.499  0.00  0.00    +0.000 HD
ENDBRANCH   7  49
BRANCH   7  52
ATOM     51  O   UNL     1      -6.085 -33.379  -6.998  0.00  0.00    +0.000 OA
ATOM     52  C   UNL     1      -6.208 -34.469  -7.540  0.00  0.00    +0.000 C 
BRANCH  52  53
ATOM     53  O   UNL     1      -6.578 -34.626  -8.854  0.00  0.00    +0.000 OA
ATOM     54  C   UNL     1      -5.678 -34.021  -9.785  0.00  0.00    +0.000 C 
ENDBRANCH  52  53
ENDBRANCH   7  52
BRANCH  20  55
ATOM     55  O   UNL     1     -10.727 -36.097  -1.387  0.00  0.00    +0.000 OA
ATOM     56  C   UNL     1     -11.883 -36.245  -2.207  0.00  0.00    +0.000 C 
ENDBRANCH  20  55
BRANCH   6  57
ATOM     57  C   UNL     1      -4.414 -38.568  -6.043  0.00  0.00    +0.000 C 
ATOM     58  C   UNL     1      -4.682 -39.604  -4.949  0.00  0.00    +0.000 C 
ENDBRANCH   6  57
BRANCH   9  59
ATOM     59  O   UNL     1      -3.657 -34.855  -6.446  0.00  0.00    +0.000 OA
BRANCH  59  61
ATOM     60  O   UNL     1      -2.827 -33.080  -7.634  0.00  0.00    +0.000 OA
ATOM     61  C   UNL     1      -2.990 -34.283  -7.484  0.00  0.00    +0.000 C 
ATOM     62  C   UNL     1      -2.452 -35.341  -8.397  0.00  0.00    +0.000 C 
ENDBRANCH  59  61
ENDBRANCH   9  59
TORSDOF 12
ENDMDL
MODEL 3
REMARK VINA RESULT:      -5.7      7.403     14.541
REMARK  Name = 
REMARK  19 active torsions:
REMARK  status: ('A' for Active; 'I' for Inactive)
REMARK    1  A    between atoms: O_1  and  C_20
REMARK    2  A    between atoms: O_1  and  C_36
REMARK    3  A    between atoms: O_2  and  C_18
REMARK    4  A    between atoms: O_3  and  C_28
REMARK    5  A    between atoms: O_3  and  C_42
REMARK    6  A    between atoms: O_5  and  C_34
REMARK    7  A    between atoms: O_5  and  C_50
REMARK    8  A    between atoms: O_7  and  C_40
REMARK    9  A    between atoms: O_7  and  C_56
REMARK   10  A    between atoms: O_9  and  C_46
REMARK   11  A    between atoms: N_11  and  C_30
REMARK   12  A    between atoms: C_17  and  C_23
REMARK   13  A    between atoms: C_18  and  C_28
REMARK   14  A    between atoms: C_23  and  C_32
REMARK   15  A    between atoms: C_33  and  C_35
REMARK   16  A    between atoms: C_35  and  C_40
REMARK   17  A    between atoms: C_36  and  C_41
REMARK   18  A    between atoms: C_46  and  C_53
REMARK   19  A    between atoms: C_53  and  C_57
REMARK                            x       y       z     vdW  Elec       q    Type
REMARK                         _______ _______ _______ _____ _____    ______ ____
ROOT
ATOM      1  N   UNL     1      -9.303 -36.128  -1.738  0.00  0.00    +0.000 NA
ATOM      2  N   UNL     1      -4.608 -36.923  -2.056  0.00  0.00    +0.000 N 
ATOM      3  C   UNL     1      -7.007 -36.490  -1.921  0.00  0.00    +0.000 C 
ATOM      4  C   UNL     1      -8.094 -35.445  -2.234  0.00  0.00    +0.000 C 
ATOM      5  C   UNL     1      -5.725 -36.191  -2.724  0.00  0.00    +0.000 C 
ATOM      6  C   UNL     1      -8.100 -34.960  -3.757  0.00  0.00    +0.000 C 
ATOM      7  C   UNL     1      -5.854 -36.283  -4.253  0.00  0.00    +0.000 C 
ATOM      8  C   UNL     1      -7.711 -37.853  -2.065  0.00  0.00    +0.000 C 
ATOM      9  C   UNL     1      -7.303 -35.938  -4.730  0.00  0.00    +0.000 C 
ATOM     10  C   UNL     1      -6.361 -36.478  -0.550  0.00  0.00    +0.000 A 
ATOM     11  C   UNL     1      -9.205 -37.540  -2.086  0.00  0.00    +0.000 C 
ATOM     12  C   UNL     1      -5.002 -36.791  -0.688  0.00  0.00    +0.000 A 
ATOM     13  C   UNL     1      -9.525 -34.829  -4.299  0.00  0.00    +0.000 C 
ATOM     14  C   UNL     1     -10.559 -35.505  -2.128  0.00  0.00    +0.000 C 
ATOM     15  C   UNL     1     -10.615 -35.063  -3.555  0.00  0.00    +0.000 C 
ATOM     16  C   UNL     1      -6.946 -36.268   0.695  0.00  0.00    +0.000 A 
ATOM     17  C   UNL     1      -3.245 -36.479  -2.340  0.00  0.00    +0.000 C 
ATOM     18  C   UNL     1      -4.217 -36.936   0.440  0.00  0.00    +0.000 A 
ATOM     19  C   UNL     1      -6.172 -36.403   1.864  0.00  0.00    +0.000 A 
ATOM     20  C   UNL     1      -4.798 -36.753   1.705  0.00  0.00    +0.000 A 
ENDROOT
BRANCH  19  23
ATOM     21  N   UNL     1      -7.860 -35.427   7.411  0.00  0.00    +0.000 NA
ATOM     22  N   UNL     1      -7.861 -34.133   2.300  0.00  0.00    +0.000 N 
ATOM     23  C   UNL     1      -6.790 -36.201   3.305  0.00  0.00    +0.000 C 
ATOM     24  C   UNL     1      -5.685 -35.710   4.348  0.00  0.00    +0.000 C 
ATOM     25  C   UNL     1      -7.914 -35.110   3.281  0.00  0.00    +0.000 A 
ATOM     26  C   UNL     1      -6.192 -35.142   5.683  0.00  0.00    +0.000 C 
ATOM     27  C   UNL     1      -5.110 -34.543   6.580  0.00  0.00    +0.000 C 
ATOM     28  C   UNL     1      -6.947 -36.148   6.541  0.00  0.00    +0.000 C 
ATOM     29  C   UNL     1      -9.001 -34.774   4.107  0.00  0.00    +0.000 A 
ATOM     30  C   UNL     1      -5.711 -33.958   7.893  0.00  0.00    +0.000 C 
ATOM     31  C   UNL     1      -7.126 -34.523   8.324  0.00  0.00    +0.000 C 
ATOM     32  C   UNL     1      -9.520 -35.404   5.390  0.00  0.00    +0.000 C 
ATOM     33  C   UNL     1      -8.967 -34.746   6.690  0.00  0.00    +0.000 C 
ATOM     34  C   UNL     1      -9.611 -33.593   3.540  0.00  0.00    +0.000 A 
ATOM     35  C   UNL     1      -8.878 -33.227   2.421  0.00  0.00    +0.000 A 
ATOM     36  C   UNL     1     -10.720 -32.793   3.897  0.00  0.00    +0.000 A 
ATOM     37  C   UNL     1      -9.189 -32.115   1.629  0.00  0.00    +0.000 A 
ATOM     38  C   UNL     1     -11.050 -31.677   3.120  0.00  0.00    +0.000 A 
ATOM     39  C   UNL     1     -10.293 -31.344   2.001  0.00  0.00    +0.000 A 
ATOM     40  H   UNL     1      -7.169 -34.097   1.564  0.00  0.00    +0.000 HD
BRANCH  23  42
ATOM     41  O   UNL     1      -8.459 -38.059   3.507  0.00  0.00    +0.000 OA
ATOM     42  C   UNL     1      -7.339 -37.608   3.713  0.00  0.00    +0.000 C 
BRANCH  42  43
ATOM     43  O   UNL     1      -6.351 -38.332   4.340  0.00  0.00    +0.000 OA
ATOM     44  C   UNL     1      -6.208 -39.664   3.847  0.00  0.00    +0.000 C 
ENDBRANCH  42  43
ENDBRANCH  23  42
BRANCH  30  45
ATOM     45  O   UNL     1      -4.771 -34.317   8.936  0.00  0.00    +0.000 OA
ATOM     46  H   UNL     1      -3.883 -34.061   8.628  0.00  0.00    +0.000 HD
ENDBRANCH  30  45
BRANCH  30  47
ATOM     47  C   UNL     1      -5.685 -32.412   7.889  0.00  0.00    +0.000 C 
ATOM     48  C   UNL     1      -6.669 -31.719   6.962  0.00  0.00    +0.000 C 
ENDBRANCH  30  47
ENDBRANCH  19  23
BRANCH   7  49
ATOM     49  O   UNL     1      -4.993 -35.222  -4.781  0.00  0.00    +0.000 OA
ATOM     50  H   UNL     1      -4.089 -35.426  -4.463  0.00  0.00    +0.000 HD
ENDBRANCH   7  49
BRANCH   7  52
ATOM     51  O   UNL     1      -5.664 -38.753  -4.410  0.00  0.00    +0.000 OA
ATOM     52  C   UNL     1      -5.354 -37.639  -4.809  0.00  0.00    +0.000 C 
BRANCH  52  53
ATOM     53  O   UNL     1      -4.548 -37.422  -5.901  0.00  0.00    +0.000 OA
ATOM     54  C   UNL     1      -3.302 -38.119  -5.850  0.00  0.00    +0.000 C 
ENDBRANCH  52  53
ENDBRANCH   7  52
BRANCH  20  55
ATOM     55  O   UNL     1      -4.038 -36.844   2.844  0.00  0.00    +0.000 OA
ATOM     56  C   UNL     1      -3.112 -37.926   2.871  0.00  0.00    +0.000 C 
ENDBRANCH  20  55
BRANCH   6  57
ATOM     57  C   UNL     1      -7.461 -33.526  -3.858  0.00  0.00    +0.000 C 
ATOM     58  C   UNL     1      -7.784 -32.553  -2.723  0.00  0.00    +0.000 C 
ENDBRANCH   6  57
BRANCH   9  59
ATOM     59  O   UNL     1      -8.106 -37.125  -4.934  0.00  0.00    +0.000 OA
BRANCH  59  61
ATOM     60  O   UNL     1      -7.872 -37.145  -7.213  0.00  0.00    +0.000 OA
ATOM     61  C   UNL     1      -8.519 -37.385  -6.204  0.00  0.00    +0.000 C 
ATOM     62  C   UNL     1      -9.866 -38.040  -6.184  0.00  0.00    +0.000 C 
ENDBRANCH  59  61
ENDBRANCH   9  59
TORSDOF 12
ENDMDL
MODEL 4
REMARK VINA RESULT:      -5.7      5.898     13.163
REMARK  Name = 
REMARK  19 active torsions:
REMARK  status: ('A' for Active; 'I' for Inactive)
REMARK    1  A    between atoms: O_1  and  C_20
REMARK    2  A    between atoms: O_1  and  C_36
REMARK    3  A    between atoms: O_2  and  C_18
REMARK    4  A    between atoms: O_3  and  C_28
REMARK    5  A    between atoms: O_3  and  C_42
REMARK    6  A    between atoms: O_5  and  C_34
REMARK    7  A    between atoms: O_5  and  C_50
REMARK    8  A    between atoms: O_7  and  C_40
REMARK    9  A    between atoms: O_7  and  C_56
REMARK   10  A    between atoms: O_9  and  C_46
REMARK   11  A    between atoms: N_11  and  C_30
REMARK   12  A    between atoms: C_17  and  C_23
REMARK   13  A    between atoms: C_18  and  C_28
REMARK   14  A    between atoms: C_23  and  C_32
REMARK   15  A    between atoms: C_33  and  C_35
REMARK   16  A    between atoms: C_35  and  C_40
REMARK   17  A    between atoms: C_36  and  C_41
REMARK   18  A    between atoms: C_46  and  C_53
REMARK   19  A    between atoms: C_53  and  C_57
REMARK                            x       y       z     vdW  Elec       q    Type
REMARK                         _______ _______ _______ _____ _____    ______ ____
ROOT
ATOM      1  N   UNL     1      -7.996 -36.794  -4.284  0.00  0.00    +0.000 NA
ATOM      2  N   UNL     1      -3.286 -37.104  -3.583  0.00  0.00    +0.000 N 
ATOM      3  C   UNL     1      -5.689 -36.919  -3.970  0.00  0.00    +0.000 C 
ATOM      4  C   UNL     1      -6.781 -35.999  -4.544  0.00  0.00    +0.000 C 
ATOM      5  C   UNL     1      -4.302 -36.505  -4.498  0.00  0.00    +0.000 C 
ATOM      6  C   UNL     1      -6.512 -35.546  -6.053  0.00  0.00    +0.000 C 
ATOM      7  C   UNL     1      -4.094 -36.637  -6.016  0.00  0.00    +0.000 C 
ATOM      8  C   UNL     1      -6.210 -38.351  -4.202  0.00  0.00    +0.000 C 
ATOM      9  C   UNL     1      -5.437 -36.453  -6.798  0.00  0.00    +0.000 C 
ATOM     10  C   UNL     1      -5.352 -36.816  -2.495  0.00  0.00    +0.000 A 
ATOM     11  C   UNL     1      -7.689 -38.194  -4.546  0.00  0.00    +0.000 C 
ATOM     12  C   UNL     1      -3.971 -36.988  -2.335  0.00  0.00    +0.000 A 
ATOM     13  C   UNL     1      -7.797 -35.573  -6.885  0.00  0.00    +0.000 C 
ATOM     14  C   UNL     1      -9.196 -36.312  -4.952  0.00  0.00    +0.000 C 
ATOM     15  C   UNL     1      -8.991 -35.905  -6.375  0.00  0.00    +0.000 C 
ATOM     16  C   UNL     1      -6.205 -36.644  -1.409  0.00  0.00    +0.000 A 
ATOM     17  C   UNL     1      -1.943 -36.526  -3.595  0.00  0.00    +0.000 C 
ATOM     18  C   UNL     1      -3.432 -37.031  -1.063  0.00  0.00    +0.000 A 
ATOM     19  C   UNL     1      -5.686 -36.677  -0.100  0.00  0.00    +0.000 A 
ATOM     20  C   UNL     1      -4.282 -36.885   0.045  0.00  0.00    +0.000 A 
ENDROOT
BRANCH  19  23
ATOM     21  N   UNL     1      -8.559 -35.965   4.980  0.00  0.00    +0.000 NA
ATOM     22  N   UNL     1      -7.104 -34.211   0.227  0.00  0.00    +0.000 N 
ATOM     23  C   UNL     1      -6.612 -36.513   1.171  0.00  0.00    +0.000 C 
ATOM     24  C   UNL     1      -5.746 -36.312   2.498  0.00  0.00    +0.000 C 
ATOM     25  C   UNL     1      -7.533 -35.254   1.030  0.00  0.00    +0.000 A 
ATOM     26  C   UNL     1      -6.489 -35.797   3.742  0.00  0.00    +0.000 C 
ATOM     27  C   UNL     1      -5.594 -35.473   4.937  0.00  0.00    +0.000 C 
ATOM     28  C   UNL     1      -7.565 -36.741   4.259  0.00  0.00    +0.000 C 
ATOM     29  C   UNL     1      -8.736 -34.823   1.618  0.00  0.00    +0.000 A 
ATOM     30  C   UNL     1      -6.419 -34.923   6.140  0.00  0.00    +0.000 C 
ATOM     31  C   UNL     1      -7.961 -35.286   6.150  0.00  0.00    +0.000 C 
ATOM     32  C   UNL     1      -9.641 -35.478   2.650  0.00  0.00    +0.000 C 
ATOM     33  C   UNL     1      -9.347 -35.046   4.119  0.00  0.00    +0.000 C 
ATOM     34  C   UNL     1      -9.017 -33.510   1.086  0.00  0.00    +0.000 A 
ATOM     35  C   UNL     1      -7.985 -33.165   0.226  0.00  0.00    +0.000 A 
ATOM     36  C   UNL     1     -10.060 -32.575   1.277  0.00  0.00    +0.000 A 
ATOM     37  C   UNL     1      -7.932 -31.947  -0.462  0.00  0.00    +0.000 A 
ATOM     38  C   UNL     1     -10.029 -31.351   0.599  0.00  0.00    +0.000 A 
ATOM     39  C   UNL     1      -8.979 -31.043  -0.259  0.00  0.00    +0.000 A 
ATOM     40  H   UNL     1      -6.251 -34.219  -0.317  0.00  0.00    +0.000 HD
BRANCH  23  42
ATOM     41  O   UNL     1      -8.580 -38.032   0.869  0.00  0.00    +0.000 OA
ATOM     42  C   UNL     1      -7.432 -37.843   1.251  0.00  0.00    +0.000 C 
BRANCH  42  43
ATOM     43  O   UNL     1      -6.660 -38.837   1.804  0.00  0.00    +0.000 OA
ATOM     44  C   UNL     1      -7.408 -39.953   2.283  0.00  0.00    +0.000 C 
ENDBRANCH  42  43
ENDBRANCH  23  42
BRANCH  30  45
ATOM     45  O   UNL     1      -5.828 -35.530   7.316  0.00  0.00    +0.000 OA
ATOM     46  H   UNL     1      -4.867 -35.384   7.266  0.00  0.00    +0.000 HD
ENDBRANCH  30  45
BRANCH  30  47
ATOM     47  C   UNL     1      -6.182 -33.409   6.346  0.00  0.00    +0.000 C 
ATOM     48  C   UNL     1      -7.328 -32.485   5.969  0.00  0.00    +0.000 C 
ENDBRANCH  30  47
ENDBRANCH  19  23
BRANCH   7  49
ATOM     49  O   UNL     1      -3.249 -35.503  -6.395  0.00  0.00    +0.000 OA
ATOM     50  H   UNL     1      -3.217 -34.917  -5.610  0.00  0.00    +0.000 HD
ENDBRANCH   7  49
BRANCH   7  52
ATOM     51  O   UNL     1      -3.532 -39.054  -5.914  0.00  0.00    +0.000 OA
ATOM     52  C   UNL     1      -3.358 -37.945  -6.401  0.00  0.00    +0.000 C 
BRANCH  52  53
ATOM     53  O   UNL     1      -2.509 -37.704  -7.454  0.00  0.00    +0.000 OA
ATOM     54  C   UNL     1      -1.350 -38.539  -7.467  0.00  0.00    +0.000 C 
ENDBRANCH  52  53
ENDBRANCH   7  52
BRANCH  20  55
ATOM     55  O   UNL     1      -3.775 -36.875   1.320  0.00  0.00    +0.000 OA
ATOM     56  C   UNL     1      -2.457 -37.399   1.453  0.00  0.00    +0.000 C 
ENDBRANCH  20  55
BRANCH   6  57
ATOM     57  C   UNL     1      -6.009 -34.056  -6.076  0.00  0.00    +0.000 C 
ATOM     58  C   UNL     1      -6.208 -33.248  -4.792  0.00  0.00    +0.000 C 
ENDBRANCH   6  57
BRANCH   9  59
ATOM     59  O   UNL     1      -6.058 -37.721  -7.118  0.00  0.00    +0.000 OA
BRANCH  59  61
ATOM     60  O   UNL     1      -5.828 -37.326  -9.362  0.00  0.00    +0.000 OA
ATOM     61  C   UNL     1      -6.167 -38.046  -8.434  0.00  0.00    +0.000 C 
ATOM     62  C   UNL     1      -6.727 -39.427  -8.580  0.00  0.00    +0.000 C 
ENDBRANCH  59  61
ENDBRANCH   9  59
TORSDOF 12
ENDMDL
MODEL 5
REMARK VINA RESULT:      -5.5      2.375      9.418
REMARK  Name = 
REMARK  19 active torsions:
REMARK  status: ('A' for Active; 'I' for Inactive)
REMARK    1  A    between atoms: O_1  and  C_20
REMARK    2  A    between atoms: O_1  and  C_36
REMARK    3  A    between atoms: O_2  and  C_18
REMARK    4  A    between atoms: O_3  and  C_28
REMARK    5  A    between atoms: O_3  and  C_42
REMARK    6  A    between atoms: O_5  and  C_34
REMARK    7  A    between atoms: O_5  and  C_50
REMARK    8  A    between atoms: O_7  and  C_40
REMARK    9  A    between atoms: O_7  and  C_56
REMARK   10  A    between atoms: O_9  and  C_46
REMARK   11  A    between atoms: N_11  and  C_30
REMARK   12  A    between atoms: C_17  and  C_23
REMARK   13  A    between atoms: C_18  and  C_28
REMARK   14  A    between atoms: C_23  and  C_32
REMARK   15  A    between atoms: C_33  and  C_35
REMARK   16  A    between atoms: C_35  and  C_40
REMARK   17  A    between atoms: C_36  and  C_41
REMARK   18  A    between atoms: C_46  and  C_53
REMARK   19  A    between atoms: C_53  and  C_57
REMARK                            x       y       z     vdW  Elec       q    Type
REMARK                         _______ _______ _______ _____ _____    ______ ____
ROOT
ATOM      1  N   UNL     1       0.379 -33.627 -10.505  0.00  0.00    +0.000 NA
ATOM      2  N   UNL     1      -0.939 -38.084 -11.593  0.00  0.00    +0.000 N 
ATOM      3  C   UNL     1      -0.227 -35.815 -11.038  0.00  0.00    +0.000 C 
ATOM      4  C   UNL     1       0.926 -34.995 -10.433  0.00  0.00    +0.000 C 
ATOM      5  C   UNL     1       0.267 -37.213 -11.458  0.00  0.00    +0.000 C 
ATOM      6  C   UNL     1       2.338 -35.256 -11.136  0.00  0.00    +0.000 C 
ATOM      7  C   UNL     1       1.326 -37.244 -12.573  0.00  0.00    +0.000 C 
ATOM      8  C   UNL     1      -0.881 -34.881 -12.075  0.00  0.00    +0.000 C 
ATOM      9  C   UNL     1       2.209 -35.953 -12.563  0.00  0.00    +0.000 C 
ATOM     10  C   UNL     1      -1.339 -36.290 -10.122  0.00  0.00    +0.000 A 
ATOM     11  C   UNL     1      -0.335 -33.489 -11.769  0.00  0.00    +0.000 C 
ATOM     12  C   UNL     1      -1.742 -37.570 -10.529  0.00  0.00    +0.000 A 
ATOM     13  C   UNL     1       3.120 -33.955 -11.326  0.00  0.00    +0.000 C 
ATOM     14  C   UNL     1       1.344 -32.569 -10.248  0.00  0.00    +0.000 C 
ATOM     15  C   UNL     1       2.669 -32.763 -10.912  0.00  0.00    +0.000 C 
ATOM     16  C   UNL     1      -1.960 -35.620  -9.074  0.00  0.00    +0.000 A 
ATOM     17  C   UNL     1      -0.735 -39.531 -11.556  0.00  0.00    +0.000 C 
ATOM     18  C   UNL     1      -2.813 -38.178  -9.903  0.00  0.00    +0.000 A 
ATOM     19  C   UNL     1      -3.052 -36.215  -8.412  0.00  0.00    +0.000 A 
ATOM     20  C   UNL     1      -3.469 -37.504  -8.860  0.00  0.00    +0.000 A 
ENDROOT
BRANCH  19  23
ATOM     21  N   UNL     1      -6.440 -33.825  -4.243  0.00  0.00    +0.000 NA
ATOM     22  N   UNL     1      -2.729 -37.247  -5.761  0.00  0.00    +0.000 N 
ATOM     23  C   UNL     1      -3.813 -35.488  -7.232  0.00  0.00    +0.000 C 
ATOM     24  C   UNL     1      -5.379 -35.797  -7.273  0.00  0.00    +0.000 C 
ATOM     25  C   UNL     1      -3.285 -35.982  -5.842  0.00  0.00    +0.000 A 
ATOM     26  C   UNL     1      -6.189 -35.455  -6.011  0.00  0.00    +0.000 C 
ATOM     27  C   UNL     1      -7.647 -35.910  -6.040  0.00  0.00    +0.000 C 
ATOM     28  C   UNL     1      -6.212 -33.972  -5.669  0.00  0.00    +0.000 C 
ATOM     29  C   UNL     1      -3.307 -35.482  -4.528  0.00  0.00    +0.000 A 
ATOM     30  C   UNL     1      -8.384 -35.559  -4.713  0.00  0.00    +0.000 C 
ATOM     31  C   UNL     1      -7.747 -34.395  -3.849  0.00  0.00    +0.000 C 
ATOM     32  C   UNL     1      -3.866 -34.190  -3.954  0.00  0.00    +0.000 C 
ATOM     33  C   UNL     1      -5.318 -34.316  -3.401  0.00  0.00    +0.000 C 
ATOM     34  C   UNL     1      -2.693 -36.483  -3.686  0.00  0.00    +0.000 A 
ATOM     35  C   UNL     1      -2.347 -37.562  -4.487  0.00  0.00    +0.000 A 
ATOM     36  C   UNL     1      -2.419 -36.569  -2.303  0.00  0.00    +0.000 A 
ATOM     37  C   UNL     1      -1.734 -38.720  -3.992  0.00  0.00    +0.000 A 
ATOM     38  C   UNL     1      -1.806 -37.717  -1.786  0.00  0.00    +0.000 A 
ATOM     39  C   UNL     1      -1.469 -38.776  -2.621  0.00  0.00    +0.000 A 
ATOM     40  H   UNL     1      -2.595 -37.867  -6.550  0.00  0.00    +0.000 HD
BRANCH  23  42
ATOM     41  O   UNL     1      -2.707 -33.263  -6.911  0.00  0.00    +0.000 OA
ATOM     42  C   UNL     1      -3.551 -33.962  -7.458  0.00  0.00    +0.000 C 
BRANCH  42  43
ATOM     43  O   UNL     1      -4.407 -33.478  -8.419  0.00  0.00    +0.000 OA
ATOM     44  C   UNL     1      -4.306 -32.069  -8.627  0.00  0.00    +0.000 C 
ENDBRANCH  42  43
ENDBRANCH  23  42
BRANCH  30  45
ATOM     45  O   UNL     1      -9.706 -35.119  -5.115  0.00  0.00    +0.000 OA
ATOM     46  H   UNL     1     -10.341 -35.791  -4.809  0.00  0.00    +0.000 HD
ENDBRANCH  30  45
BRANCH  30  47
ATOM     47  C   UNL     1      -8.658 -36.823  -3.864  0.00  0.00    +0.000 C 
ATOM     48  C   UNL     1      -7.495 -37.355  -3.045  0.00  0.00    +0.000 C 
ENDBRANCH  30  47
ENDBRANCH  19  23
BRANCH   7  49
ATOM     49  O   UNL     1       2.223 -38.349 -12.228  0.00  0.00    +0.000 OA
ATOM     50  H   UNL     1       2.933 -37.958 -11.678  0.00  0.00    +0.000 HD
ENDBRANCH   7  49
BRANCH   7  52
ATOM     51  O   UNL     1      -0.358 -37.116 -14.394  0.00  0.00    +0.000 OA
ATOM     52  C   UNL     1       0.710 -37.531 -13.965  0.00  0.00    +0.000 C 
BRANCH  52  53
ATOM     53  O   UNL     1       1.590 -38.275 -14.714  0.00  0.00    +0.000 OA
ATOM     54  C   UNL     1       1.532 -38.005 -16.116  0.00  0.00    +0.000 C 
ENDBRANCH  52  53
ENDBRANCH   7  52
BRANCH  20  55
ATOM     55  O   UNL     1      -4.506 -38.097  -8.186  0.00  0.00    +0.000 OA
ATOM     56  C   UNL     1      -4.431 -39.516  -8.083  0.00  0.00    +0.000 C 
ENDBRANCH  20  55
BRANCH   6  57
ATOM     57  C   UNL     1       3.227 -36.169 -10.214  0.00  0.00    +0.000 C 
ATOM     58  C   UNL     1       4.740 -36.082 -10.423  0.00  0.00    +0.000 C 
ENDBRANCH   6  57
BRANCH   9  59
ATOM     59  O   UNL     1       1.737 -34.964 -13.508  0.00  0.00    +0.000 OA
BRANCH  59  61
ATOM     60  O   UNL     1       3.503 -35.312 -14.925  0.00  0.00    +0.000 OA
ATOM     61  C   UNL     1       2.578 -34.622 -14.521  0.00  0.00    +0.000 C 
ATOM     62  C   UNL     1       2.184 -33.296 -15.093  0.00  0.00    +0.000 C 
ENDBRANCH  59  61
ENDBRANCH   9  59
TORSDOF 12
ENDMDL
MODEL 6
REMARK VINA RESULT:      -5.5     13.896     18.563
REMARK  Name = 
REMARK  19 active torsions:
REMARK  status: ('A' for Active; 'I' for Inactive)
REMARK    1  A    between atoms: O_1  and  C_20
REMARK    2  A    between atoms: O_1  and  C_36
REMARK    3  A    between atoms: O_2  and  C_18
REMARK    4  A    between atoms: O_3  and  C_28
REMARK    5  A    between atoms: O_3  and  C_42
REMARK    6  A    between atoms: O_5  and  C_34
REMARK    7  A    between atoms: O_5  and  C_50
REMARK    8  A    between atoms: O_7  and  C_40
REMARK    9  A    between atoms: O_7  and  C_56
REMARK   10  A    between atoms: O_9  and  C_46
REMARK   11  A    between atoms: N_11  and  C_30
REMARK   12  A    between atoms: C_17  and  C_23
REMARK   13  A    between atoms: C_18  and  C_28
REMARK   14  A    between atoms: C_23  and  C_32
REMARK   15  A    between atoms: C_33  and  C_35
REMARK   16  A    between atoms: C_35  and  C_40
REMARK   17  A    between atoms: C_36  and  C_41
REMARK   18  A    between atoms: C_46  and  C_53
REMARK   19  A    between atoms: C_53  and  C_57
REMARK                            x       y       z     vdW  Elec       q    Type
REMARK                         _______ _______ _______ _____ _____    ______ ____
ROOT
ATOM      1  N   UNL     1      -3.173 -20.076 -16.685  0.00  0.00    +0.000 NA
ATOM      2  N   UNL     1      -7.344 -18.451 -18.341  0.00  0.00    +0.000 N 
ATOM      3  C   UNL     1      -5.194 -19.248 -17.502  0.00  0.00    +0.000 C 
ATOM      4  C   UNL     1      -3.674 -19.021 -17.586  0.00  0.00    +0.000 C 
ATOM      5  C   UNL     1      -5.954 -18.011 -18.021  0.00  0.00    +0.000 C 
ATOM      6  C   UNL     1      -3.230 -17.519 -17.271  0.00  0.00    +0.000 C 
ATOM      7  C   UNL     1      -5.759 -16.716 -17.214  0.00  0.00    +0.000 C 
ATOM      8  C   UNL     1      -5.443 -19.766 -16.072  0.00  0.00    +0.000 C 
ATOM      9  C   UNL     1      -4.356 -16.676 -16.523  0.00  0.00    +0.000 C 
ATOM     10  C   UNL     1      -5.832 -20.252 -18.443  0.00  0.00    +0.000 A 
ATOM     11  C   UNL     1      -4.067 -20.157 -15.537  0.00  0.00    +0.000 C 
ATOM     12  C   UNL     1      -7.085 -19.764 -18.840  0.00  0.00    +0.000 A 
ATOM     13  C   UNL     1      -1.968 -17.475 -16.406  0.00  0.00    +0.000 C 
ATOM     14  C   UNL     1      -1.765 -19.964 -16.336  0.00  0.00    +0.000 C 
ATOM     15  C   UNL     1      -1.317 -18.577 -16.007  0.00  0.00    +0.000 C 
ATOM     16  C   UNL     1      -5.363 -21.496 -18.850  0.00  0.00    +0.000 A 
ATOM     17  C   UNL     1      -8.131 -17.605 -19.236  0.00  0.00    +0.000 C 
ATOM     18  C   UNL     1      -7.904 -20.550 -19.628  0.00  0.00    +0.000 A 
ATOM     19  C   UNL     1      -6.171 -22.319 -19.658  0.00  0.00    +0.000 A 
ATOM     20  C   UNL     1      -7.455 -21.820 -20.027  0.00  0.00    +0.000 A 
ENDROOT
BRANCH  19  23
ATOM     21  N   UNL     1      -3.811 -27.497 -21.140  0.00  0.00    +0.000 NA
ATOM     22  N   UNL     1      -7.000 -24.585 -18.116  0.00  0.00    +0.000 N 
ATOM     23  C   UNL     1      -5.699 -23.753 -20.128  0.00  0.00    +0.000 C 
ATOM     24  C   UNL     1      -4.148 -23.982 -19.824  0.00  0.00    +0.000 C 
ATOM     25  C   UNL     1      -6.485 -24.875 -19.369  0.00  0.00    +0.000 A 
ATOM     26  C   UNL     1      -3.630 -25.428 -19.901  0.00  0.00    +0.000 C 
ATOM     27  C   UNL     1      -2.183 -25.618 -19.451  0.00  0.00    +0.000 C 
ATOM     28  C   UNL     1      -3.732 -26.054 -21.285  0.00  0.00    +0.000 C 
ATOM     29  C   UNL     1      -6.754 -26.237 -19.594  0.00  0.00    +0.000 A 
ATOM     30  C   UNL     1      -1.750 -27.113 -19.524  0.00  0.00    +0.000 C 
ATOM     31  C   UNL     1      -2.594 -28.036 -20.494  0.00  0.00    +0.000 C 
ATOM     32  C   UNL     1      -6.373 -27.159 -20.741  0.00  0.00    +0.000 C 
ATOM     33  C   UNL     1      -5.064 -27.970 -20.497  0.00  0.00    +0.000 C 
ATOM     34  C   UNL     1      -7.492 -26.715 -18.448  0.00  0.00    +0.000 A 
ATOM     35  C   UNL     1      -7.626 -25.663 -17.555  0.00  0.00    +0.000 A 
ATOM     36  C   UNL     1      -8.044 -27.965 -18.087  0.00  0.00    +0.000 A 
ATOM     37  C   UNL     1      -8.285 -25.779 -16.325  0.00  0.00    +0.000 A 
ATOM     38  C   UNL     1      -8.709 -28.104 -16.864  0.00  0.00    +0.000 A 
ATOM     39  C   UNL     1      -8.827 -27.024 -15.996  0.00  0.00    +0.000 A 
ATOM     40  H   UNL     1      -6.944 -23.679 -17.669  0.00  0.00    +0.000 HD
BRANCH  23  42
ATOM     41  O   UNL     1      -6.785 -24.465 -22.270  0.00  0.00    +0.000 OA
ATOM     42  C   UNL     1      -5.963 -23.783 -21.670  0.00  0.00    +0.000 C 
BRANCH  42  43
ATOM     43  O   UNL     1      -5.140 -22.882 -22.304  0.00  0.00    +0.000 OA
ATOM     44  C   UNL     1      -4.767 -23.269 -23.626  0.00  0.00    +0.000 C 
ENDBRANCH  42  43
ENDBRANCH  23  42
BRANCH  30  45
ATOM     45  O   UNL     1      -0.390 -27.092 -20.027  0.00  0.00    +0.000 OA
ATOM     46  H   UNL     1      -0.214 -27.964 -20.424  0.00  0.00    +0.000 HD
ENDBRANCH  30  45
BRANCH  30  47
ATOM     47  C   UNL     1      -1.612 -27.733 -18.114  0.00  0.00    +0.000 C 
ATOM     48  C   UNL     1      -2.899 -28.177 -17.439  0.00  0.00    +0.000 C 
ENDBRANCH  30  47
ENDBRANCH  19  23
BRANCH   7  49
ATOM     49  O   UNL     1      -5.753 -15.637 -18.204  0.00  0.00    +0.000 OA
ATOM     50  H   UNL     1      -6.644 -15.639 -18.610  0.00  0.00    +0.000 HD
ENDBRANCH   7  49
BRANCH   7  52
ATOM     51  O   UNL     1      -7.460 -17.285 -15.497  0.00  0.00    +0.000 OA
ATOM     52  C   UNL     1      -6.918 -16.459 -16.218  0.00  0.00    +0.000 C 
BRANCH  52  53
ATOM     53  O   UNL     1      -7.215 -15.118 -16.193  0.00  0.00    +0.000 OA
ATOM     54  C   UNL     1      -8.322 -14.785 -15.354  0.00  0.00    +0.000 C 
ENDBRANCH  52  53
ENDBRANCH   7  52
BRANCH  20  55
ATOM     55  O   UNL     1      -8.223 -22.608 -20.847  0.00  0.00    +0.000 OA
ATOM     56  C   UNL     1      -9.514 -22.933 -20.341  0.00  0.00    +0.000 C 
ENDBRANCH  20  55
BRANCH   6  57
ATOM     57  C   UNL     1      -2.865 -16.783 -18.612  0.00  0.00    +0.000 C 
ATOM     58  C   UNL     1      -2.690 -17.665 -19.850  0.00  0.00    +0.000 C 
ENDBRANCH   6  57
BRANCH   9  59
ATOM     59  O   UNL     1      -4.414 -17.120 -15.147  0.00  0.00    +0.000 OA
BRANCH  59  61
ATOM     60  O   UNL     1      -3.204 -16.723 -13.242  0.00  0.00    +0.000 OA
ATOM     61  C   UNL     1      -3.833 -16.322 -14.211  0.00  0.00    +0.000 C 
ATOM     62  C   UNL     1      -4.045 -14.881 -14.558  0.00  0.00    +0.000 C 
ENDBRANCH  59  61
ENDBRANCH   9  59
TORSDOF 12
ENDMDL
MODEL 7
REMARK VINA RESULT:      -5.5      5.805     13.544
REMARK  Name = 
REMARK  19 active torsions:
REMARK  status: ('A' for Active; 'I' for Inactive)
REMARK    1  A    between atoms: O_1  and  C_20
REMARK    2  A    between atoms: O_1  and  C_36
REMARK    3  A    between atoms: O_2  and  C_18
REMARK    4  A    between atoms: O_3  and  C_28
REMARK    5  A    between atoms: O_3  and  C_42
REMARK    6  A    between atoms: O_5  and  C_34
REMARK    7  A    between atoms: O_5  and  C_50
REMARK    8  A    between atoms: O_7  and  C_40
REMARK    9  A    between atoms: O_7  and  C_56
REMARK   10  A    between atoms: O_9  and  C_46
REMARK   11  A    between atoms: N_11  and  C_30
REMARK   12  A    between atoms: C_17  and  C_23
REMARK   13  A    between atoms: C_18  and  C_28
REMARK   14  A    between atoms: C_23  and  C_32
REMARK   15  A    between atoms: C_33  and  C_35
REMARK   16  A    between atoms: C_35  and  C_40
REMARK   17  A    between atoms: C_36  and  C_41
REMARK   18  A    between atoms: C_46  and  C_53
REMARK   19  A    between atoms: C_53  and  C_57
REMARK                            x       y       z     vdW  Elec       q    Type
REMARK                         _______ _______ _______ _____ _____    ______ ____
ROOT
ATOM      1  N   UNL     1      -4.378 -37.868  -4.310  0.00  0.00    +0.000 NA
ATOM      2  N   UNL     1      -6.264 -33.496  -3.983  0.00  0.00    +0.000 N 
ATOM      3  C   UNL     1      -5.317 -35.738  -4.184  0.00  0.00    +0.000 C 
ATOM      4  C   UNL     1      -5.513 -37.105  -4.863  0.00  0.00    +0.000 C 
ATOM      5  C   UNL     1      -6.125 -34.650  -4.920  0.00  0.00    +0.000 C 
ATOM      6  C   UNL     1      -5.634 -37.022  -6.454  0.00  0.00    +0.000 C 
ATOM      7  C   UNL     1      -5.708 -34.371  -6.374  0.00  0.00    +0.000 C 
ATOM      8  C   UNL     1      -3.793 -35.589  -4.017  0.00  0.00    +0.000 C 
ATOM      9  C   UNL     1      -5.104 -35.644  -7.052  0.00  0.00    +0.000 C 
ATOM     10  C   UNL     1      -5.927 -35.511  -2.815  0.00  0.00    +0.000 A 
ATOM     11  C   UNL     1      -3.220 -36.985  -4.254  0.00  0.00    +0.000 C 
ATOM     12  C   UNL     1      -6.398 -34.193  -2.742  0.00  0.00    +0.000 A 
ATOM     13  C   UNL     1      -4.859 -38.151  -7.136  0.00  0.00    +0.000 C 
ATOM     14  C   UNL     1      -4.123 -39.142  -4.965  0.00  0.00    +0.000 C 
ATOM     15  C   UNL     1      -4.199 -39.100  -6.457  0.00  0.00    +0.000 C 
ATOM     16  C   UNL     1      -5.998 -36.380  -1.730  0.00  0.00    +0.000 A 
ATOM     17  C   UNL     1      -7.328 -32.530  -4.254  0.00  0.00    +0.000 C 
ATOM     18  C   UNL     1      -6.913 -33.717  -1.552  0.00  0.00    +0.000 A 
ATOM     19  C   UNL     1      -6.523 -35.927  -0.504  0.00  0.00    +0.000 A 
ATOM     20  C   UNL     1      -6.967 -34.573  -0.439  0.00  0.00    +0.000 A 
ENDROOT
BRANCH  19  23
ATOM     21  N   UNL     1      -6.745 -38.843   4.597  0.00  0.00    +0.000 NA
ATOM     22  N   UNL     1      -9.095 -36.892   0.301  0.00  0.00    +0.000 N 
ATOM     23  C   UNL     1      -6.603 -36.862   0.768  0.00  0.00    +0.000 C 
ATOM     24  C   UNL     1      -6.377 -36.033   2.114  0.00  0.00    +0.000 C 
ATOM     25  C   UNL     1      -8.013 -37.536   0.876  0.00  0.00    +0.000 A 
ATOM     26  C   UNL     1      -6.767 -36.725   3.431  0.00  0.00    +0.000 C 
ATOM     27  C   UNL     1      -6.680 -35.839   4.673  0.00  0.00    +0.000 C 
ATOM     28  C   UNL     1      -5.955 -37.974   3.742  0.00  0.00    +0.000 C 
ATOM     29  C   UNL     1      -8.535 -38.666   1.531  0.00  0.00    +0.000 A 
ATOM     30  C   UNL     1      -7.127 -36.602   5.955  0.00  0.00    +0.000 C 
ATOM     31  C   UNL     1      -7.060 -38.183   5.883  0.00  0.00    +0.000 C 
ATOM     32  C   UNL     1      -7.870 -39.717   2.405  0.00  0.00    +0.000 C 
ATOM     33  C   UNL     1      -7.944 -39.414   3.932  0.00  0.00    +0.000 C 
ATOM     34  C   UNL     1      -9.956 -38.684   1.270  0.00  0.00    +0.000 A 
ATOM     35  C   UNL     1     -10.265 -37.570   0.504  0.00  0.00    +0.000 A 
ATOM     36  C   UNL     1     -11.011 -39.548   1.638  0.00  0.00    +0.000 A 
ATOM     37  C   UNL     1     -11.564 -37.270   0.074  0.00  0.00    +0.000 A 
ATOM     38  C   UNL     1     -12.317 -39.269   1.218  0.00  0.00    +0.000 A 
ATOM     39  C   UNL     1     -12.587 -38.144   0.446  0.00  0.00    +0.000 A 
ATOM     40  H   UNL     1      -9.036 -36.031  -0.228  0.00  0.00    +0.000 HD
BRANCH  23  42
ATOM     41  O   UNL     1      -5.555 -39.043   0.117  0.00  0.00    +0.000 OA
ATOM     42  C   UNL     1      -5.458 -37.911   0.575  0.00  0.00    +0.000 C 
BRANCH  42  43
ATOM     43  O   UNL     1      -4.257 -37.372   0.974  0.00  0.00    +0.000 OA
ATOM     44  C   UNL     1      -3.150 -37.756   0.159  0.00  0.00    +0.000 C 
ENDBRANCH  42  43
ENDBRANCH  23  42
BRANCH  30  45
ATOM     45  O   UNL     1      -6.203 -36.182   6.991  0.00  0.00    +0.000 OA
ATOM     46  H   UNL     1      -6.171 -36.891   7.657  0.00  0.00    +0.000 HD
ENDBRANCH  30  45
BRANCH  30  47
ATOM     47  C   UNL     1      -8.501 -36.106   6.462  0.00  0.00    +0.000 C 
ATOM     48  C   UNL     1      -9.724 -36.622   5.723  0.00  0.00    +0.000 C 
ENDBRANCH  30  47
ENDBRANCH  19  23
BRANCH   7  49
ATOM     49  O   UNL     1      -6.953 -34.084  -7.089  0.00  0.00    +0.000 OA
ATOM     50  H   UNL     1      -6.930 -34.633  -7.900  0.00  0.00    +0.000 HD
ENDBRANCH   7  49
BRANCH   7  52
ATOM     51  O   UNL     1      -3.866 -32.829  -5.742  0.00  0.00    +0.000 OA
ATOM     52  C   UNL     1      -4.779 -33.137  -6.496  0.00  0.00    +0.000 C 
BRANCH  52  53
ATOM     53  O   UNL     1      -5.074 -32.450  -7.649  0.00  0.00    +0.000 OA
ATOM     54  C   UNL     1      -3.953 -31.780  -8.228  0.00  0.00    +0.000 C 
ENDBRANCH  52  53
ENDBRANCH   7  52
BRANCH  20  55
ATOM     55  O   UNL     1      -7.515 -34.149   0.744  0.00  0.00    +0.000 OA
ATOM     56  C   UNL     1      -8.580 -33.211   0.618  0.00  0.00    +0.000 C 
ENDBRANCH  20  55
BRANCH   6  57
ATOM     57  C   UNL     1      -7.137 -37.205  -6.881  0.00  0.00    +0.000 C 
ATOM     58  C   UNL     1      -8.096 -37.711  -5.802  0.00  0.00    +0.000 C 
ENDBRANCH   6  57
BRANCH   9  59
ATOM     59  O   UNL     1      -3.657 -35.655  -7.000  0.00  0.00    +0.000 OA
BRANCH  59  61
ATOM     60  O   UNL     1      -1.774 -35.510  -8.296  0.00  0.00    +0.000 OA
ATOM     61  C   UNL     1      -2.991 -35.517  -8.177  0.00  0.00    +0.000 C 
ATOM     62  C   UNL     1      -3.963 -35.410  -9.311  0.00  0.00    +0.000 C 
ENDBRANCH  59  61
ENDBRANCH   9  59
TORSDOF 12
ENDMDL
MODEL 8
REMARK VINA RESULT:      -5.5     17.561     21.049
REMARK  Name = 
REMARK  19 active torsions:
REMARK  status: ('A' for Active; 'I' for Inactive)
REMARK    1  A    between atoms: O_1  and  C_20
REMARK    2  A    between atoms: O_1  and  C_36
REMARK    3  A    between atoms: O_2  and  C_18
REMARK    4  A    between atoms: O_3  and  C_28
REMARK    5  A    between atoms: O_3  and  C_42
REMARK    6  A    between atoms: O_5  and  C_34
REMARK    7  A    between atoms: O_5  and  C_50
REMARK    8  A    between atoms: O_7  and  C_40
REMARK    9  A    between atoms: O_7  and  C_56
REMARK   10  A    between atoms: O_9  and  C_46
REMARK   11  A    between atoms: N_11  and  C_30
REMARK   12  A    between atoms: C_17  and  C_23
REMARK   13  A    between atoms: C_18  and  C_28
REMARK   14  A    between atoms: C_23  and  C_32
REMARK   15  A    between atoms: C_33  and  C_35
REMARK   16  A    between atoms: C_35  and  C_40
REMARK   17  A    between atoms: C_36  and  C_41
REMARK   18  A    between atoms: C_46  and  C_53
REMARK   19  A    between atoms: C_53  and  C_57
REMARK                            x       y       z     vdW  Elec       q    Type
REMARK                         _______ _______ _______ _____ _____    ______ ____
ROOT
ATOM      1  N   UNL     1      -7.853 -14.549 -15.770  0.00  0.00    +0.000 NA
ATOM      2  N   UNL     1      -7.769 -18.618 -18.264  0.00  0.00    +0.000 N 
ATOM      3  C   UNL     1      -7.830 -16.519 -17.017  0.00  0.00    +0.000 C 
ATOM      4  C   UNL     1      -7.934 -14.992 -17.174  0.00  0.00    +0.000 C 
ATOM      5  C   UNL     1      -8.312 -17.227 -18.299  0.00  0.00    +0.000 C 
ATOM      6  C   UNL     1      -9.205 -14.517 -18.019  0.00  0.00    +0.000 C 
ATOM      7  C   UNL     1      -9.792 -17.023 -18.664  0.00  0.00    +0.000 C 
ATOM      8  C   UNL     1      -8.499 -16.828 -15.664  0.00  0.00    +0.000 C 
ATOM      9  C   UNL     1     -10.323 -15.643 -18.155  0.00  0.00    +0.000 C 
ATOM     10  C   UNL     1      -6.453 -17.153 -16.974  0.00  0.00    +0.000 A 
ATOM     11  C   UNL     1      -8.620 -15.482 -14.954  0.00  0.00    +0.000 C 
ATOM     12  C   UNL     1      -6.499 -18.378 -17.654  0.00  0.00    +0.000 A 
ATOM     13  C   UNL     1      -9.864 -13.283 -17.397  0.00  0.00    +0.000 C 
ATOM     14  C   UNL     1      -8.189 -13.151 -15.549  0.00  0.00    +0.000 C 
ATOM     15  C   UNL     1      -9.390 -12.676 -16.300  0.00  0.00    +0.000 C 
ATOM     16  C   UNL     1      -5.299 -16.705 -16.341  0.00  0.00    +0.000 A 
ATOM     17  C   UNL     1      -7.708 -19.351 -19.527  0.00  0.00    +0.000 C 
ATOM     18  C   UNL     1      -5.383 -19.192 -17.669  0.00  0.00    +0.000 A 
ATOM     19  C   UNL     1      -4.142 -17.509 -16.343  0.00  0.00    +0.000 A 
ATOM     20  C   UNL     1      -4.217 -18.766 -17.012  0.00  0.00    +0.000 A 
ENDROOT
BRANCH  19  23
ATOM     21  N   UNL     1       0.929 -16.502 -13.542  0.00  0.00    +0.000 NA
ATOM     22  N   UNL     1      -1.930 -16.693 -17.967  0.00  0.00    +0.000 N 
ATOM     23  C   UNL     1      -2.811 -17.061 -15.617  0.00  0.00    +0.000 C 
ATOM     24  C   UNL     1      -2.033 -18.314 -15.004  0.00  0.00    +0.000 C 
ATOM     25  C   UNL     1      -1.835 -16.364 -16.625  0.00  0.00    +0.000 A 
ATOM     26  C   UNL     1      -0.573 -18.087 -14.581  0.00  0.00    +0.000 C 
ATOM     27  C   UNL     1       0.175 -19.348 -14.149  0.00  0.00    +0.000 C 
ATOM     28  C   UNL     1      -0.400 -17.081 -13.452  0.00  0.00    +0.000 C 
ATOM     29  C   UNL     1      -0.737 -15.491 -16.516  0.00  0.00    +0.000 A 
ATOM     30  C   UNL     1       1.655 -19.038 -13.773  0.00  0.00    +0.000 C 
ATOM     31  C   UNL     1       1.974 -17.537 -13.382  0.00  0.00    +0.000 C 
ATOM     32  C   UNL     1      -0.080 -14.853 -15.302  0.00  0.00    +0.000 C 
ATOM     33  C   UNL     1       1.135 -15.653 -14.743  0.00  0.00    +0.000 C 
ATOM     34  C   UNL     1      -0.231 -15.283 -17.852  0.00  0.00    +0.000 A 
ATOM     35  C   UNL     1      -0.996 -16.043 -18.724  0.00  0.00    +0.000 A 
ATOM     36  C   UNL     1       0.831 -14.521 -18.392  0.00  0.00    +0.000 A 
ATOM     37  C   UNL     1      -0.772 -16.083 -20.106  0.00  0.00    +0.000 A 
ATOM     38  C   UNL     1       1.072 -14.545 -19.771  0.00  0.00    +0.000 A 
ATOM     39  C   UNL     1       0.279 -15.316 -20.615  0.00  0.00    +0.000 A 
ATOM     40  H   UNL     1      -2.620 -17.323 -18.356  0.00  0.00    +0.000 HD
BRANCH  23  42
ATOM     41  O   UNL     1      -3.558 -16.389 -13.322  0.00  0.00    +0.000 OA
ATOM     42  C   UNL     1      -3.274 -16.095 -14.477  0.00  0.00    +0.000 C 
BRANCH  42  43
ATOM     43  O   UNL     1      -3.298 -14.800 -14.941  0.00  0.00    +0.000 OA
ATOM     44  C   UNL     1      -4.319 -13.994 -14.355  0.00  0.00    +0.000 C 
ENDBRANCH  42  43
ENDBRANCH  23  42
BRANCH  30  45
ATOM     45  O   UNL     1       1.931 -19.852 -12.606  0.00  0.00    +0.000 OA
ATOM     46  H   UNL     1       1.203 -20.494 -12.521  0.00  0.00    +0.000 HD
ENDBRANCH  30  45
BRANCH  30  47
ATOM     47  C   UNL     1       2.636 -19.576 -14.840  0.00  0.00    +0.000 C 
ATOM     48  C   UNL     1       2.743 -18.778 -16.128  0.00  0.00    +0.000 C 
ENDBRANCH  30  47
ENDBRANCH  19  23
BRANCH   7  49
ATOM     49  O   UNL     1      -9.827 -16.955 -20.126  0.00  0.00    +0.000 OA
ATOM     50  H   UNL     1     -10.739 -17.204 -20.385  0.00  0.00    +0.000 HD
ENDBRANCH   7  49
BRANCH   7  52
ATOM     51  O   UNL     1     -10.797 -18.640 -17.070  0.00  0.00    +0.000 OA
ATOM     52  C   UNL     1     -10.681 -18.207 -18.208  0.00  0.00    +0.000 C 
BRANCH  52  53
ATOM     53  O   UNL     1     -11.411 -18.672 -19.275  0.00  0.00    +0.000 OA
ATOM     54  C   UNL     1     -11.368 -20.092 -19.432  0.00  0.00    +0.000 C 
ENDBRANCH  52  53
ENDBRANCH   7  52
BRANCH  20  55
ATOM     55  O   UNL     1      -3.076 -19.527 -17.046  0.00  0.00    +0.000 OA
ATOM     56  C   UNL     1      -3.271 -20.897 -17.388  0.00  0.00    +0.000 C 
ENDBRANCH  20  55
BRANCH   6  57
ATOM     57  C   UNL     1      -8.752 -14.088 -19.462  0.00  0.00    +0.000 C 
ATOM     58  C   UNL     1      -7.253 -13.854 -19.666  0.00  0.00    +0.000 C 
ENDBRANCH   6  57
BRANCH   9  59
ATOM     59  O   UNL     1     -11.006 -15.758 -16.884  0.00  0.00    +0.000 OA
BRANCH  59  61
ATOM     60  O   UNL     1     -13.080 -15.619 -17.848  0.00  0.00    +0.000 OA
ATOM     61  C   UNL     1     -12.346 -15.525 -16.874  0.00  0.00    +0.000 C 
ATOM     62  C   UNL     1     -12.799 -15.170 -15.492  0.00  0.00    +0.000 C 
ENDBRANCH  59  61
ENDBRANCH   9  59
TORSDOF 12
ENDMDL
MODEL 9
REMARK VINA RESULT:      -5.5     20.816     26.036
REMARK  Name = 
REMARK  19 active torsions:
REMARK  status: ('A' for Active; 'I' for Inactive)
REMARK    1  A    between atoms: O_1  and  C_20
REMARK    2  A    between atoms: O_1  and  C_36
REMARK    3  A    between atoms: O_2  and  C_18
REMARK    4  A    between atoms: O_3  and  C_28
REMARK    5  A    between atoms: O_3  and  C_42
REMARK    6  A    between atoms: O_5  and  C_34
REMARK    7  A    between atoms: O_5  and  C_50
REMARK    8  A    between atoms: O_7  and  C_40
REMARK    9  A    between atoms: O_7  and  C_56
REMARK   10  A    between atoms: O_9  and  C_46
REMARK   11  A    between atoms: N_11  and  C_30
REMARK   12  A    between atoms: C_17  and  C_23
REMARK   13  A    between atoms: C_18  and  C_28
REMARK   14  A    between atoms: C_23  and  C_32
REMARK   15  A    between atoms: C_33  and  C_35
REMARK   16  A    between atoms: C_35  and  C_40
REMARK   17  A    between atoms: C_36  and  C_41
REMARK   18  A    between atoms: C_46  and  C_53
REMARK   19  A    between atoms: C_53  and  C_57
REMARK                            x       y       z     vdW  Elec       q    Type
REMARK                         _______ _______ _______ _____ _____    ______ ____
ROOT
ATOM      1  N   UNL     1      -2.034 -16.290   2.854  0.00  0.00    +0.000 NA
ATOM      2  N   UNL     1      -3.221 -14.565  -1.435  0.00  0.00    +0.000 N 
ATOM      3  C   UNL     1      -2.613 -15.483   0.744  0.00  0.00    +0.000 C 
ATOM      4  C   UNL     1      -2.618 -16.771   1.587  0.00  0.00    +0.000 C 
ATOM      5  C   UNL     1      -2.781 -15.817  -0.751  0.00  0.00    +0.000 C 
ATOM      6  C   UNL     1      -1.900 -18.009   0.875  0.00  0.00    +0.000 C 
ATOM      7  C   UNL     1      -1.650 -16.643  -1.386  0.00  0.00    +0.000 C 
ATOM      8  C   UNL     1      -1.381 -14.694   1.227  0.00  0.00    +0.000 C 
ATOM      9  C   UNL     1      -0.961 -17.577  -0.337  0.00  0.00    +0.000 C 
ATOM     10  C   UNL     1      -3.797 -14.542   0.847  0.00  0.00    +0.000 A 
ATOM     11  C   UNL     1      -0.959 -15.358   2.536  0.00  0.00    +0.000 C 
ATOM     12  C   UNL     1      -4.058 -14.005  -0.421  0.00  0.00    +0.000 A 
ATOM     13  C   UNL     1      -1.045 -18.806   1.862  0.00  0.00    +0.000 C 
ATOM     14  C   UNL     1      -1.655 -17.339   3.788  0.00  0.00    +0.000 C 
ATOM     15  C   UNL     1      -0.956 -18.503   3.164  0.00  0.00    +0.000 C 
ATOM     16  C   UNL     1      -4.524 -14.165   1.971  0.00  0.00    +0.000 A 
ATOM     17  C   UNL     1      -3.860 -14.699  -2.743  0.00  0.00    +0.000 C 
ATOM     18  C   UNL     1      -5.038 -13.042  -0.565  0.00  0.00    +0.000 A 
ATOM     19  C   UNL     1      -5.534 -13.189   1.857  0.00  0.00    +0.000 A 
ATOM     20  C   UNL     1      -5.764 -12.630   0.565  0.00  0.00    +0.000 A 
ENDROOT
BRANCH  19  23
ATOM     21  N   UNL     1      -8.610 -10.760   6.240  0.00  0.00    +0.000 NA
ATOM     22  N   UNL     1      -8.354 -13.685   1.862  0.00  0.00    +0.000 N 
ATOM     23  C   UNL     1      -6.373 -12.704   3.106  0.00  0.00    +0.000 C 
ATOM     24  C   UNL     1      -6.547 -11.116   3.107  0.00  0.00    +0.000 C 
ATOM     25  C   UNL     1      -7.812 -13.322   3.084  0.00  0.00    +0.000 A 
ATOM     26  C   UNL     1      -7.616 -10.534   4.047  0.00  0.00    +0.000 C 
ATOM     27  C   UNL     1      -7.853  -9.032   3.900  0.00  0.00    +0.000 C 
ATOM     28  C   UNL     1      -7.346 -10.780   5.525  0.00  0.00    +0.000 C 
ATOM     29  C   UNL     1      -8.822 -13.543   4.038  0.00  0.00    +0.000 A 
ATOM     30  C   UNL     1      -8.974  -8.531   4.858  0.00  0.00    +0.000 C 
ATOM     31  C   UNL     1      -9.271  -9.442   6.119  0.00  0.00    +0.000 C 
ATOM     32  C   UNL     1      -8.870 -13.263   5.532  0.00  0.00    +0.000 C 
ATOM     33  C   UNL     1      -9.511 -11.891   5.901  0.00  0.00    +0.000 C 
ATOM     34  C   UNL     1      -9.953 -14.099   3.332  0.00  0.00    +0.000 A 
ATOM     35  C   UNL     1      -9.624 -14.173   1.987  0.00  0.00    +0.000 A 
ATOM     36  C   UNL     1     -11.240 -14.530   3.725  0.00  0.00    +0.000 A 
ATOM     37  C   UNL     1     -10.500 -14.661   1.008  0.00  0.00    +0.000 A 
ATOM     38  C   UNL     1     -12.132 -15.022   2.764  0.00  0.00    +0.000 A 
ATOM     39  C   UNL     1     -11.764 -15.086   1.424  0.00  0.00    +0.000 A 
ATOM     40  H   UNL     1      -7.866 -13.622   0.977  0.00  0.00    +0.000 HD
BRANCH  23  42
ATOM     41  O   UNL     1      -5.709 -14.181   5.017  0.00  0.00    +0.000 OA
ATOM     42  C   UNL     1      -5.549 -13.164   4.354  0.00  0.00    +0.000 C 
BRANCH  42  43
ATOM     43  O   UNL     1      -4.550 -12.256   4.615  0.00  0.00    +0.000 OA
ATOM     44  C   UNL     1      -3.900 -12.455   5.871  0.00  0.00    +0.000 C 
ENDBRANCH  42  43
ENDBRANCH  23  42
BRANCH  30  45
ATOM     45  O   UNL     1      -8.507  -7.251   5.355  0.00  0.00    +0.000 OA
ATOM     46  H   UNL     1      -8.520  -7.295   6.328  0.00  0.00    +0.000 HD
ENDBRANCH  30  45
BRANCH  30  47
ATOM     47  C   UNL     1     -10.266  -8.178   4.086  0.00  0.00    +0.000 C 
ATOM     48  C   UNL     1     -11.580  -8.530   4.763  0.00  0.00    +0.000 C 
ENDBRANCH  30  47
ENDBRANCH  19  23
BRANCH   7  49
ATOM     49  O   UNL     1      -2.308 -17.532  -2.347  0.00  0.00    +0.000 OA
ATOM     50  H   UNL     1      -1.812 -18.376  -2.316  0.00  0.00    +0.000 HD
ENDBRANCH   7  49
BRANCH   7  52
ATOM     51  O   UNL     1      -0.356 -14.593  -1.923  0.00  0.00    +0.000 OA
ATOM     52  C   UNL     1      -0.632 -15.762  -2.153  0.00  0.00    +0.000 C 
BRANCH  52  53
ATOM     53  O   UNL     1      -0.000 -16.516  -3.112  0.00  0.00    +0.000 OA
ATOM     54  C   UNL     1       1.291 -16.026  -3.478  0.00  0.00    +0.000 C 
ENDBRANCH  52  53
ENDBRANCH   7  52
BRANCH  20  55
ATOM     55  O   UNL     1      -6.775 -11.710   0.451  0.00  0.00    +0.000 OA
ATOM     56  C   UNL     1      -7.286 -11.530  -0.867  0.00  0.00    +0.000 C 
ENDBRANCH  20  55
BRANCH   6  57
ATOM     57  C   UNL     1      -2.987 -19.009   0.332  0.00  0.00    +0.000 C 
ATOM     58  C   UNL     1      -3.938 -19.611   1.368  0.00  0.00    +0.000 C 
ENDBRANCH   6  57
BRANCH   9  59
ATOM     59  O   UNL     1       0.241 -16.986   0.211  0.00  0.00    +0.000 OA
BRANCH  59  61
ATOM     60  O   UNL     1       1.614 -18.464  -0.876  0.00  0.00    +0.000 OA
ATOM     61  C   UNL     1       1.407 -17.661   0.024  0.00  0.00    +0.000 C 
ATOM     62  C   UNL     1       2.411 -17.254   1.056  0.00  0.00    +0.000 C 
ENDBRANCH  59  61
ENDBRANCH   9  59
TORSDOF 12
ENDMDL
