MODEL 1
REMARK VINA RESULT:      -4.8      0.000      0.000
REMARK  Name = Vorinostat.pdbqt.pdb
REMARK  6 active torsions:
REMARK  status: ('A' for Active; 'I' for Inactive)
REMARK    1  A    between atoms: C_1  and  C_2
REMARK    2  A    between atoms: C_3  and  C_4
REMARK    3  A    between atoms: C_5  and  C_8
REMARK    4  A    between atoms: N_7  and  O_10
REMARK    5  A    between atoms: C_12  and  C_15
REMARK    6  A    between atoms: N_14  and  C_17
REMARK                            x       y       z     vdW  Elec       q    Type
REMARK                         _______ _______ _______ _____ _____    ______ ____
ROOT
ATOM      1  C   UNL     1      -3.863 -33.013  -6.990  0.00  0.00    +0.000 C 
ATOM      2  C   UNL     1      -4.763 -33.308  -5.787  0.00  0.00    +0.000 C 
ENDROOT
BRANCH   2   5
ATOM      3  O   UNL     1      -5.228 -34.399  -3.825  0.00  0.00    +0.000 OA
ATOM      4  N   UNL     1      -6.789 -32.875  -4.644  0.00  0.00    +0.000 N 
ATOM      5  C   UNL     1      -5.612 -33.587  -4.651  0.00  0.00    +0.000 C 
ATOM      6  H   UNL     1      -6.952 -32.238  -5.413  0.00  0.00    +0.000 HD
BRANCH   4   7
ATOM      7  C   UNL     1      -7.789 -32.957  -3.659  0.00  0.00    +0.000 A 
ATOM      8  C   UNL     1      -8.567 -34.115  -3.615  0.00  0.00    +0.000 A 
ATOM      9  C   UNL     1      -8.027 -31.939  -2.737  0.00  0.00    +0.000 A 
ATOM     10  C   UNL     1      -9.573 -34.253  -2.662  0.00  0.00    +0.000 A 
ATOM     11  C   UNL     1      -9.033 -32.074  -1.781  0.00  0.00    +0.000 A 
ATOM     12  C   UNL     1      -9.805 -33.232  -1.744  0.00  0.00    +0.000 A 
ENDBRANCH   4   7
ENDBRANCH   2   5
BRANCH   1  13
ATOM     13  C   UNL     1      -2.961 -32.719  -8.192  0.00  0.00    +0.000 C 
ATOM     14  C   UNL     1      -2.059 -32.424  -9.395  0.00  0.00    +0.000 C 
BRANCH  14  15
ATOM     15  C   UNL     1      -1.158 -32.130 -10.597  0.00  0.00    +0.000 C 
ATOM     16  C   UNL     1      -0.255 -31.837 -11.799  0.00  0.00    +0.000 C 
BRANCH  16  19
ATOM     17  O   UNL     1       1.634 -32.189 -13.090  0.00  0.00    +0.000 OA
ATOM     18  N   UNL     1       0.160 -30.584 -13.778  0.00  0.00    +0.000 N 
ATOM     19  C   UNL     1       0.594 -31.562 -12.927  0.00  0.00    +0.000 C 
ATOM     20  H   UNL     1      -0.715 -30.084 -13.681  0.00  0.00    +0.000 HD
BRANCH  18  21
ATOM     21  O   UNL     1       0.950 -30.308 -14.915  0.00  0.00    +0.000 OA
ATOM     22  H   UNL     1       0.379 -30.614 -15.654  0.00  0.00    +0.000 HD
ENDBRANCH  18  21
ENDBRANCH  16  19
ENDBRANCH  14  15
ENDBRANCH   1  13
TORSDOF 6
ENDMDL
MODEL 2
REMARK VINA RESULT:      -4.6     16.716     18.968
REMARK  Name = Vorinostat.pdbqt.pdb
REMARK  6 active torsions:
REMARK  status: ('A' for Active; 'I' for Inactive)
REMARK    1  A    between atoms: C_1  and  C_2
REMARK    2  A    between atoms: C_3  and  C_4
REMARK    3  A    between atoms: C_5  and  C_8
REMARK    4  A    between atoms: N_7  and  O_10
REMARK    5  A    between atoms: C_12  and  C_15
REMARK    6  A    between atoms: N_14  and  C_17
REMARK                            x       y       z     vdW  Elec       q    Type
REMARK                         _______ _______ _______ _____ _____    ______ ____
ROOT
ATOM      1  C   UNL     1      -7.789 -16.873   1.448  0.00  0.00    +0.000 C 
ATOM      2  C   UNL     1      -9.056 -16.020   1.556  0.00  0.00    +0.000 C 
ENDROOT
BRANCH   2   5
ATOM      3  O   UNL     1     -10.239 -14.093   1.176  0.00  0.00    +0.000 OA
ATOM      4  N   UNL     1     -11.295 -15.840   2.301  0.00  0.00    +0.000 N 
ATOM      5  C   UNL     1     -10.252 -15.216   1.656  0.00  0.00    +0.000 C 
ATOM      6  H   UNL     1     -11.135 -16.781   2.640  0.00  0.00    +0.000 HD
BRANCH   4   7
ATOM      7  C   UNL     1     -12.565 -15.284   2.533  0.00  0.00    +0.000 A 
ATOM      8  C   UNL     1     -13.379 -15.038   1.427  0.00  0.00    +0.000 A 
ATOM      9  C   UNL     1     -13.033 -14.974   3.810  0.00  0.00    +0.000 A 
ATOM     10  C   UNL     1     -14.648 -14.488   1.595  0.00  0.00    +0.000 A 
ATOM     11  C   UNL     1     -14.302 -14.424   3.980  0.00  0.00    +0.000 A 
ATOM     12  C   UNL     1     -15.109 -14.182   2.872  0.00  0.00    +0.000 A 
ENDBRANCH   4   7
ENDBRANCH   2   5
BRANCH   1  13
ATOM     13  C   UNL     1      -6.523 -17.728   1.341  0.00  0.00    +0.000 C 
ATOM     14  C   UNL     1      -5.257 -18.583   1.232  0.00  0.00    +0.000 C 
BRANCH  14  15
ATOM     15  C   UNL     1      -3.992 -19.439   1.124  0.00  0.00    +0.000 C 
ATOM     16  C   UNL     1      -2.725 -20.294   1.016  0.00  0.00    +0.000 C 
BRANCH  16  19
ATOM     17  O   UNL     1      -1.479 -22.026   0.117  0.00  0.00    +0.000 OA
ATOM     18  N   UNL     1      -0.506 -20.745   1.740  0.00  0.00    +0.000 N 
ATOM     19  C   UNL     1      -1.536 -21.096   0.912  0.00  0.00    +0.000 C 
ATOM     20  H   UNL     1      -0.520 -19.956   2.374  0.00  0.00    +0.000 HD
BRANCH  18  21
ATOM     21  O   UNL     1       0.692 -21.487   1.645  0.00  0.00    +0.000 OA
ATOM     22  H   UNL     1       0.389 -22.335   1.252  0.00  0.00    +0.000 HD
ENDBRANCH  18  21
ENDBRANCH  16  19
ENDBRANCH  14  15
ENDBRANCH   1  13
TORSDOF 6
ENDMDL
MODEL 3
REMARK VINA RESULT:      -4.6     17.030     20.691
REMARK  Name = Vorinostat.pdbqt.pdb
REMARK  6 active torsions:
REMARK  status: ('A' for Active; 'I' for Inactive)
REMARK    1  A    between atoms: C_1  and  C_2
REMARK    2  A    between atoms: C_3  and  C_4
REMARK    3  A    between atoms: C_5  and  C_8
REMARK    4  A    between atoms: N_7  and  O_10
REMARK    5  A    between atoms: C_12  and  C_15
REMARK    6  A    between atoms: N_14  and  C_17
REMARK                            x       y       z     vdW  Elec       q    Type
REMARK                         _______ _______ _______ _____ _____    ______ ____
ROOT
ATOM      1  C   UNL     1      -7.767 -17.077   1.758  0.00  0.00    +0.000 C 
ATOM      2  C   UNL     1      -6.301 -17.511   1.851  0.00  0.00    +0.000 C 
ENDROOT
BRANCH   2   5
ATOM      3  O   UNL     1      -4.315 -17.710   2.978  0.00  0.00    +0.000 OA
ATOM      4  N   UNL     1      -4.440 -18.524   0.798  0.00  0.00    +0.000 N 
ATOM      5  C   UNL     1      -4.919 -17.922   1.939  0.00  0.00    +0.000 C 
ATOM      6  H   UNL     1      -5.081 -18.622   0.020  0.00  0.00    +0.000 HD
BRANCH   4   7
ATOM      7  C   UNL     1      -3.136 -19.015   0.617  0.00  0.00    +0.000 A 
ATOM      8  C   UNL     1      -2.884 -20.341   0.973  0.00  0.00    +0.000 A 
ATOM      9  C   UNL     1      -2.100 -18.237   0.102  0.00  0.00    +0.000 A 
ATOM     10  C   UNL     1      -1.610 -20.883   0.817  0.00  0.00    +0.000 A 
ATOM     11  C   UNL     1      -0.824 -18.777  -0.056  0.00  0.00    +0.000 A 
ATOM     12  C   UNL     1      -0.580 -20.101   0.302  0.00  0.00    +0.000 A 
ENDBRANCH   4   7
ENDBRANCH   2   5
BRANCH   1  13
ATOM     13  C   UNL     1      -9.232 -16.644   1.662  0.00  0.00    +0.000 C 
ATOM     14  C   UNL     1     -10.699 -16.212   1.567  0.00  0.00    +0.000 C 
BRANCH  14  15
ATOM     15  C   UNL     1     -12.165 -15.779   1.471  0.00  0.00    +0.000 C 
ATOM     16  C   UNL     1     -13.631 -15.347   1.375  0.00  0.00    +0.000 C 
BRANCH  16  19
ATOM     17  O   UNL     1     -15.821 -15.627   0.678  0.00  0.00    +0.000 OA
ATOM     18  N   UNL     1     -15.329 -13.775   1.923  0.00  0.00    +0.000 N 
ATOM     19  C   UNL     1     -15.009 -14.942   1.288  0.00  0.00    +0.000 C 
ATOM     20  H   UNL     1     -14.681 -13.217   2.465  0.00  0.00    +0.000 HD
BRANCH  18  21
ATOM     21  O   UNL     1     -16.679 -13.360   1.888  0.00  0.00    +0.000 OA
ATOM     22  H   UNL     1     -17.027 -13.825   1.095  0.00  0.00    +0.000 HD
ENDBRANCH  18  21
ENDBRANCH  16  19
ENDBRANCH  14  15
ENDBRANCH   1  13
TORSDOF 6
ENDMDL
MODEL 4
REMARK VINA RESULT:      -4.5     17.389     19.140
REMARK  Name = Vorinostat.pdbqt.pdb
REMARK  6 active torsions:
REMARK  status: ('A' for Active; 'I' for Inactive)
REMARK    1  A    between atoms: C_1  and  C_2
REMARK    2  A    between atoms: C_3  and  C_4
REMARK    3  A    between atoms: C_5  and  C_8
REMARK    4  A    between atoms: N_7  and  O_10
REMARK    5  A    between atoms: C_12  and  C_15
REMARK    6  A    between atoms: N_14  and  C_17
REMARK                            x       y       z     vdW  Elec       q    Type
REMARK                         _______ _______ _______ _____ _____    ______ ____
ROOT
ATOM      1  C   UNL     1     -15.545 -18.878  -1.223  0.00  0.00    +0.000 C 
ATOM      2  C   UNL     1     -15.470 -19.910  -0.095  0.00  0.00    +0.000 C 
ENDROOT
BRANCH   2   5
ATOM      3  O   UNL     1     -15.739 -20.544   2.092  0.00  0.00    +0.000 OA
ATOM      4  N   UNL     1     -14.936 -22.117   0.571  0.00  0.00    +0.000 N 
ATOM      5  C   UNL     1     -15.397 -20.883   0.970  0.00  0.00    +0.000 C 
ATOM      6  H   UNL     1     -14.694 -22.229  -0.406  0.00  0.00    +0.000 HD
BRANCH   4   7
ATOM      7  C   UNL     1     -14.769 -23.237   1.404  0.00  0.00    +0.000 A 
ATOM      8  C   UNL     1     -13.611 -23.305   2.179  0.00  0.00    +0.000 A 
ATOM      9  C   UNL     1     -15.706 -24.267   1.482  0.00  0.00    +0.000 A 
ATOM     10  C   UNL     1     -13.391 -24.392   3.023  0.00  0.00    +0.000 A 
ATOM     11  C   UNL     1     -15.489 -25.354   2.326  0.00  0.00    +0.000 A 
ATOM     12  C   UNL     1     -14.331 -25.416   3.097  0.00  0.00    +0.000 A 
ENDBRANCH   4   7
ENDBRANCH   2   5
BRANCH   1  13
ATOM     13  C   UNL     1     -15.620 -17.844  -2.350  0.00  0.00    +0.000 C 
ATOM     14  C   UNL     1     -15.695 -16.810  -3.479  0.00  0.00    +0.000 C 
BRANCH  14  15
ATOM     15  C   UNL     1     -15.769 -15.777  -4.606  0.00  0.00    +0.000 C 
ATOM     16  C   UNL     1     -15.842 -14.744  -5.735  0.00  0.00    +0.000 C 
BRANCH  16  19
ATOM     17  O   UNL     1     -14.892 -13.415  -7.374  0.00  0.00    +0.000 OA
ATOM     18  N   UNL     1     -17.157 -13.307  -7.099  0.00  0.00    +0.000 N 
ATOM     19  C   UNL     1     -15.909 -13.774  -6.795  0.00  0.00    +0.000 C 
ATOM     20  H   UNL     1     -18.013 -13.622  -6.660  0.00  0.00    +0.000 HD
BRANCH  18  21
ATOM     21  O   UNL     1     -17.269 -12.378  -8.157  0.00  0.00    +0.000 OA
ATOM     22  H   UNL     1     -16.448 -12.539  -8.672  0.00  0.00    +0.000 HD
ENDBRANCH  18  21
ENDBRANCH  16  19
ENDBRANCH  14  15
ENDBRANCH   1  13
TORSDOF 6
ENDMDL
MODEL 5
REMARK VINA RESULT:      -4.5     17.222     18.627
REMARK  Name = Vorinostat.pdbqt.pdb
REMARK  6 active torsions:
REMARK  status: ('A' for Active; 'I' for Inactive)
REMARK    1  A    between atoms: C_1  and  C_2
REMARK    2  A    between atoms: C_3  and  C_4
REMARK    3  A    between atoms: C_5  and  C_8
REMARK    4  A    between atoms: N_7  and  O_10
REMARK    5  A    between atoms: C_12  and  C_15
REMARK    6  A    between atoms: N_14  and  C_17
REMARK                            x       y       z     vdW  Elec       q    Type
REMARK                         _______ _______ _______ _____ _____    ______ ____
ROOT
ATOM      1  C   UNL     1      -3.926 -16.571 -14.766  0.00  0.00    +0.000 C 
ATOM      2  C   UNL     1      -5.276 -16.211 -15.393  0.00  0.00    +0.000 C 
ENDROOT
BRANCH   2   5
ATOM      3  O   UNL     1      -6.558 -15.305 -17.064  0.00  0.00    +0.000 OA
ATOM      4  N   UNL     1      -7.636 -16.245 -15.224  0.00  0.00    +0.000 N 
ATOM      5  C   UNL     1      -6.550 -15.872 -15.983  0.00  0.00    +0.000 C 
ATOM      6  H   UNL     1      -7.450 -16.710 -14.343  0.00  0.00    +0.000 HD
BRANCH   4   7
ATOM      7  C   UNL     1      -8.983 -16.034 -15.563  0.00  0.00    +0.000 A 
ATOM      8  C   UNL     1      -9.593 -14.863 -15.112  0.00  0.00    +0.000 A 
ATOM      9  C   UNL     1      -9.721 -16.940 -16.325  0.00  0.00    +0.000 A 
ATOM     10  C   UNL     1     -10.927 -14.601 -15.417  0.00  0.00    +0.000 A 
ATOM     11  C   UNL     1     -11.055 -16.679 -16.632  0.00  0.00    +0.000 A 
ATOM     12  C   UNL     1     -11.658 -15.509 -16.178  0.00  0.00    +0.000 A 
ENDBRANCH   4   7
ENDBRANCH   2   5
BRANCH   1  13
ATOM     13  C   UNL     1      -2.576 -16.930 -14.139  0.00  0.00    +0.000 C 
ATOM     14  C   UNL     1      -1.226 -17.289 -13.510  0.00  0.00    +0.000 C 
BRANCH  14  15
ATOM     15  C   UNL     1       0.124 -17.646 -12.881  0.00  0.00    +0.000 C 
ATOM     16  C   UNL     1       1.474 -18.006 -12.253  0.00  0.00    +0.000 C 
BRANCH  16  19
ATOM     17  O   UNL     1       3.705 -17.599 -11.792  0.00  0.00    +0.000 OA
ATOM     18  N   UNL     1       2.783 -19.521 -10.970  0.00  0.00    +0.000 N 
ATOM     19  C   UNL     1       2.742 -18.344 -11.664  0.00  0.00    +0.000 C 
ATOM     20  H   UNL     1       1.987 -20.129 -10.820  0.00  0.00    +0.000 HD
BRANCH  18  21
ATOM     21  O   UNL     1       4.001 -19.872 -10.349  0.00  0.00    +0.000 OA
ATOM     22  H   UNL     1       4.660 -19.344 -10.851  0.00  0.00    +0.000 HD
ENDBRANCH  18  21
ENDBRANCH  16  19
ENDBRANCH  14  15
ENDBRANCH   1  13
TORSDOF 6
ENDMDL
MODEL 6
REMARK VINA RESULT:      -4.5      2.904     11.618
REMARK  Name = Vorinostat.pdbqt.pdb
REMARK  6 active torsions:
REMARK  status: ('A' for Active; 'I' for Inactive)
REMARK    1  A    between atoms: C_1  and  C_2
REMARK    2  A    between atoms: C_3  and  C_4
REMARK    3  A    between atoms: C_5  and  C_8
REMARK    4  A    between atoms: N_7  and  O_10
REMARK    5  A    between atoms: C_12  and  C_15
REMARK    6  A    between atoms: N_14  and  C_17
REMARK                            x       y       z     vdW  Elec       q    Type
REMARK                         _______ _______ _______ _____ _____    ______ ____
ROOT
ATOM      1  C   UNL     1      -3.927 -33.413  -7.489  0.00  0.00    +0.000 C 
ATOM      2  C   UNL     1      -2.848 -33.555  -8.566  0.00  0.00    +0.000 C 
ENDROOT
BRANCH   2   5
ATOM      3  O   UNL     1      -1.726 -34.760 -10.161  0.00  0.00    +0.000 OA
ATOM      4  N   UNL     1      -1.082 -32.553  -9.780  0.00  0.00    +0.000 N 
ATOM      5  C   UNL     1      -1.831 -33.690  -9.583  0.00  0.00    +0.000 C 
ATOM      6  H   UNL     1      -1.303 -31.746  -9.210  0.00  0.00    +0.000 HD
BRANCH   4   7
ATOM      7  C   UNL     1      -0.032 -32.414 -10.705  0.00  0.00    +0.000 A 
ATOM      8  C   UNL     1      -0.303 -31.748 -11.901  0.00  0.00    +0.000 A 
ATOM      9  C   UNL     1       1.250 -32.909 -10.473  0.00  0.00    +0.000 A 
ATOM     10  C   UNL     1       0.697 -31.580 -12.856  0.00  0.00    +0.000 A 
ATOM     11  C   UNL     1       2.253 -32.741 -11.427  0.00  0.00    +0.000 A 
ATOM     12  C   UNL     1       1.976 -32.077 -12.618  0.00  0.00    +0.000 A 
ENDBRANCH   4   7
ENDBRANCH   2   5
BRANCH   1  13
ATOM     13  C   UNL     1      -5.008 -33.270  -6.413  0.00  0.00    +0.000 C 
ATOM     14  C   UNL     1      -6.088 -33.126  -5.337  0.00  0.00    +0.000 C 
BRANCH  14  15
ATOM     15  C   UNL     1      -7.168 -32.981  -4.261  0.00  0.00    +0.000 C 
ATOM     16  C   UNL     1      -8.248 -32.838  -3.184  0.00  0.00    +0.000 C 
BRANCH  16  19
ATOM     17  O   UNL     1      -9.935 -33.672  -1.836  0.00  0.00    +0.000 OA
ATOM     18  N   UNL     1      -9.409 -31.458  -1.634  0.00  0.00    +0.000 N 
ATOM     19  C   UNL     1      -9.263 -32.705  -2.174  0.00  0.00    +0.000 C 
ATOM     20  H   UNL     1      -8.837 -30.657  -1.872  0.00  0.00    +0.000 HD
BRANCH  18  21
ATOM     21  O   UNL     1     -10.373 -31.294  -0.615  0.00  0.00    +0.000 OA
ATOM     22  H   UNL     1      -9.841 -30.939   0.130  0.00  0.00    +0.000 HD
ENDBRANCH  18  21
ENDBRANCH  16  19
ENDBRANCH  14  15
ENDBRANCH   1  13
TORSDOF 6
ENDMDL
MODEL 7
REMARK VINA RESULT:      -4.4      7.602     12.193
REMARK  Name = Vorinostat.pdbqt.pdb
REMARK  6 active torsions:
REMARK  status: ('A' for Active; 'I' for Inactive)
REMARK    1  A    between atoms: C_1  and  C_2
REMARK    2  A    between atoms: C_3  and  C_4
REMARK    3  A    between atoms: C_5  and  C_8
REMARK    4  A    between atoms: N_7  and  O_10
REMARK    5  A    between atoms: C_12  and  C_15
REMARK    6  A    between atoms: N_14  and  C_17
REMARK                            x       y       z     vdW  Elec       q    Type
REMARK                         _______ _______ _______ _____ _____    ______ ____
ROOT
ATOM      1  C   UNL     1      -2.178 -36.828  -2.193  0.00  0.00    +0.000 C 
ATOM      2  C   UNL     1      -2.481 -35.738  -3.224  0.00  0.00    +0.000 C 
ENDROOT
BRANCH   2   5
ATOM      3  O   UNL     1      -2.583 -33.544  -3.882  0.00  0.00    +0.000 OA
ATOM      4  N   UNL     1      -3.223 -35.190  -5.404  0.00  0.00    +0.000 N 
ATOM      5  C   UNL     1      -2.765 -34.709  -4.198  0.00  0.00    +0.000 C 
ATOM      6  H   UNL     1      -3.317 -36.194  -5.498  0.00  0.00    +0.000 HD
BRANCH   4   7
ATOM      7  C   UNL     1      -3.571 -34.407  -6.518  0.00  0.00    +0.000 A 
ATOM      8  C   UNL     1      -2.763 -34.493  -7.653  0.00  0.00    +0.000 A 
ATOM      9  C   UNL     1      -4.679 -33.561  -6.530  0.00  0.00    +0.000 A 
ATOM     10  C   UNL     1      -3.059 -33.741  -8.787  0.00  0.00    +0.000 A 
ATOM     11  C   UNL     1      -4.978 -32.808  -7.664  0.00  0.00    +0.000 A 
ATOM     12  C   UNL     1      -4.168 -32.898  -8.793  0.00  0.00    +0.000 A 
ENDBRANCH   4   7
ENDBRANCH   2   5
BRANCH   1  13
ATOM     13  C   UNL     1      -1.875 -37.920  -1.163  0.00  0.00    +0.000 C 
ATOM     14  C   UNL     1      -1.572 -39.012  -0.132  0.00  0.00    +0.000 C 
BRANCH  14  15
ATOM     15  C   UNL     1      -1.269 -40.102   0.899  0.00  0.00    +0.000 C 
ATOM     16  C   UNL     1      -0.964 -41.193   1.931  0.00  0.00    +0.000 C 
BRANCH  16  19
ATOM     17  O   UNL     1      -1.444 -43.159   3.055  0.00  0.00    +0.000 OA
ATOM     18  N   UNL     1       0.480 -42.059   3.610  0.00  0.00    +0.000 N 
ATOM     19  C   UNL     1      -0.678 -42.215   2.902  0.00  0.00    +0.000 C 
ATOM     20  H   UNL     1       1.144 -41.308   3.469  0.00  0.00    +0.000 HD
BRANCH  18  21
ATOM     21  O   UNL     1       0.813 -43.059   4.549  0.00  0.00    +0.000 OA
ATOM     22  H   UNL     1      -0.045 -43.516   4.692  0.00  0.00    +0.000 HD
ENDBRANCH  18  21
ENDBRANCH  16  19
ENDBRANCH  14  15
ENDBRANCH   1  13
TORSDOF 6
ENDMDL
MODEL 8
REMARK VINA RESULT:      -4.3     12.422     15.850
REMARK  Name = Vorinostat.pdbqt.pdb
REMARK  6 active torsions:
REMARK  status: ('A' for Active; 'I' for Inactive)
REMARK    1  A    between atoms: C_1  and  C_2
REMARK    2  A    between atoms: C_3  and  C_4
REMARK    3  A    between atoms: C_5  and  C_8
REMARK    4  A    between atoms: N_7  and  O_10
REMARK    5  A    between atoms: C_12  and  C_15
REMARK    6  A    between atoms: N_14  and  C_17
REMARK                            x       y       z     vdW  Elec       q    Type
REMARK                         _______ _______ _______ _____ _____    ______ ____
ROOT
ATOM      1  C   UNL     1       4.600 -27.646  -2.016  0.00  0.00    +0.000 C 
ATOM      2  C   UNL     1       5.033 -26.374  -2.752  0.00  0.00    +0.000 C 
ENDROOT
BRANCH   2   5
ATOM      3  O   UNL     1       5.542 -25.216  -4.664  0.00  0.00    +0.000 OA
ATOM      4  N   UNL     1       5.672 -24.100  -2.622  0.00  0.00    +0.000 N 
ATOM      5  C   UNL     1       5.441 -25.176  -3.448  0.00  0.00    +0.000 C 
ATOM      6  H   UNL     1       5.540 -24.240  -1.627  0.00  0.00    +0.000 HD
BRANCH   4   7
ATOM      7  C   UNL     1       6.078 -22.820  -3.038  0.00  0.00    +0.000 A 
ATOM      8  C   UNL     1       5.208 -21.754  -2.806  0.00  0.00    +0.000 A 
ATOM      9  C   UNL     1       7.300 -22.581  -3.665  0.00  0.00    +0.000 A 
ATOM     10  C   UNL     1       5.555 -20.463  -3.198  0.00  0.00    +0.000 A 
ATOM     11  C   UNL     1       7.651 -21.290  -4.057  0.00  0.00    +0.000 A 
ATOM     12  C   UNL     1       6.778 -20.231  -3.823  0.00  0.00    +0.000 A 
ENDBRANCH   4   7
ENDBRANCH   2   5
BRANCH   1  13
ATOM     13  C   UNL     1       4.164 -28.916  -1.281  0.00  0.00    +0.000 C 
ATOM     14  C   UNL     1       3.728 -30.187  -0.544  0.00  0.00    +0.000 C 
BRANCH  14  15
ATOM     15  C   UNL     1       3.293 -31.456   0.192  0.00  0.00    +0.000 C 
ATOM     16  C   UNL     1       2.858 -32.728   0.928  0.00  0.00    +0.000 C 
BRANCH  16  19
ATOM     17  O   UNL     1       1.733 -34.746   1.067  0.00  0.00    +0.000 OA
ATOM     18  N   UNL     1       2.919 -34.062   2.896  0.00  0.00    +0.000 N 
ATOM     19  C   UNL     1       2.451 -33.922   1.619  0.00  0.00    +0.000 C 
ATOM     20  H   UNL     1       3.545 -33.411   3.354  0.00  0.00    +0.000 HD
BRANCH  18  21
ATOM     21  O   UNL     1       2.569 -35.237   3.596  0.00  0.00    +0.000 OA
ATOM     22  H   UNL     1       3.203 -35.238   4.346  0.00  0.00    +0.000 HD
ENDBRANCH  18  21
ENDBRANCH  16  19
ENDBRANCH  14  15
ENDBRANCH   1  13
TORSDOF 6
ENDMDL
MODEL 9
REMARK VINA RESULT:      -4.2     26.380     28.668
REMARK  Name = Vorinostat.pdbqt.pdb
REMARK  6 active torsions:
REMARK  status: ('A' for Active; 'I' for Inactive)
REMARK    1  A    between atoms: C_1  and  C_2
REMARK    2  A    between atoms: C_3  and  C_4
REMARK    3  A    between atoms: C_5  and  C_8
REMARK    4  A    between atoms: N_7  and  O_10
REMARK    5  A    between atoms: C_12  and  C_15
REMARK    6  A    between atoms: N_14  and  C_17
REMARK                            x       y       z     vdW  Elec       q    Type
REMARK                         _______ _______ _______ _____ _____    ______ ____
ROOT
ATOM      1  C   UNL     1      -9.247  -6.179  -6.762  0.00  0.00    +0.000 C 
ATOM      2  C   UNL     1      -7.838  -6.293  -7.351  0.00  0.00    +0.000 C 
ENDROOT
BRANCH   2   5
ATOM      3  O   UNL     1      -5.922  -5.374  -8.211  0.00  0.00    +0.000 OA
ATOM      4  N   UNL     1      -6.053  -7.694  -8.022  0.00  0.00    +0.000 N 
ATOM      5  C   UNL     1      -6.508  -6.401  -7.905  0.00  0.00    +0.000 C 
ATOM      6  H   UNL     1      -6.674  -8.434  -7.718  0.00  0.00    +0.000 HD
BRANCH   4   7
ATOM      7  C   UNL     1      -4.799  -8.078  -8.528  0.00  0.00    +0.000 A 
ATOM      8  C   UNL     1      -4.676  -8.237  -9.909  0.00  0.00    +0.000 A 
ATOM      9  C   UNL     1      -3.691  -8.301  -7.712  0.00  0.00    +0.000 A 
ATOM     10  C   UNL     1      -3.458  -8.616 -10.469  0.00  0.00    +0.000 A 
ATOM     11  C   UNL     1      -2.471  -8.680  -8.270  0.00  0.00    +0.000 A 
ATOM     12  C   UNL     1      -2.355  -8.838  -9.648  0.00  0.00    +0.000 A 
ENDBRANCH   4   7
ENDBRANCH   2   5
BRANCH   1  13
ATOM     13  C   UNL     1     -10.656  -6.067  -6.172  0.00  0.00    +0.000 C 
ATOM     14  C   UNL     1     -12.065  -5.956  -5.581  0.00  0.00    +0.000 C 
BRANCH  14  15
ATOM     15  C   UNL     1     -13.473  -5.845  -4.991  0.00  0.00    +0.000 C 
ATOM     16  C   UNL     1     -14.883  -5.734  -4.401  0.00  0.00    +0.000 C 
BRANCH  16  19
ATOM     17  O   UNL     1     -16.996  -6.562  -3.946  0.00  0.00    +0.000 OA
ATOM     18  N   UNL     1     -16.503  -4.451  -3.225  0.00  0.00    +0.000 N 
ATOM     19  C   UNL     1     -16.207  -5.630  -3.849  0.00  0.00    +0.000 C 
ATOM     20  H   UNL     1     -15.852  -3.686  -3.101  0.00  0.00    +0.000 HD
BRANCH  18  21
ATOM     21  O   UNL     1     -17.782  -4.322  -2.641  0.00  0.00    +0.000 OA
ATOM     22  H   UNL     1     -17.808  -3.375  -2.384  0.00  0.00    +0.000 HD
ENDBRANCH  18  21
ENDBRANCH  16  19
ENDBRANCH  14  15
ENDBRANCH   1  13
TORSDOF 6
ENDMDL
