MODEL 1
REMARK VINA RESULT:      -6.5      0.000      0.000
REMARK  Name = 10074640_Masitinib.pdbqt.pdb
REMARK  6 active torsions:
REMARK  status: ('A' for Active; 'I' for Inactive)
REMARK    1  A    between atoms: C_1  and  N_22
REMARK    2  A    between atoms: C_2  and  N_9
REMARK    3  A    between atoms: C_12  and  C_16
REMARK    4  A    between atoms: C_23  and  C_30
REMARK    5  A    between atoms: C_25  and  C_31
REMARK    6  A    between atoms: C_31  and  N_32
REMARK                            x       y       z     vdW  Elec       q    Type
REMARK                         _______ _______ _______ _____ _____    ______ ____
ROOT
ATOM      1  C   UNL     1     -55.444 -58.432 -68.044  0.00  0.00    +0.000 A 
ATOM      2  C   UNL     1     -53.083 -58.418 -68.693  0.00  0.00    +0.000 A 
ATOM      3  C   UNL     1     -54.183 -59.029 -68.078  0.00  0.00    +0.000 A 
ATOM      4  C   UNL     1     -53.296 -57.158 -69.287  0.00  0.00    +0.000 A 
ATOM      5  C   UNL     1     -55.627 -57.196 -68.661  0.00  0.00    +0.000 A 
ATOM      6  C   UNL     1     -54.554 -56.555 -69.273  0.00  0.00    +0.000 A 
ATOM      7  C   UNL     1     -52.158 -56.422 -69.964  0.00  0.00    +0.000 C 
ENDROOT
BRANCH   2   9
ATOM      8  S   UNL     1     -49.883 -60.772 -69.410  0.00  0.00    +0.000 S 
ATOM      9  N   UNL     1     -51.817 -59.047 -68.762  0.00  0.00    +0.000 N 
ATOM     10  N   UNL     1     -52.161 -60.555 -70.570  0.00  0.00    +0.000 NA
ATOM     11  C   UNL     1     -51.447 -60.053 -69.587  0.00  0.00    +0.000 A 
ATOM     12  C   UNL     1     -51.485 -61.577 -71.207  0.00  0.00    +0.000 A 
ATOM     13  C   UNL     1     -50.234 -61.822 -70.696  0.00  0.00    +0.000 A 
ATOM     14  H   UNL     1     -51.132 -58.660 -68.117  0.00  0.00    +0.000 HD
BRANCH  12  16
ATOM     15  N   UNL     1     -53.985 -63.419 -73.281  0.00  0.00    +0.000 NA
ATOM     16  C   UNL     1     -52.061 -62.297 -72.321  0.00  0.00    +0.000 A 
ATOM     17  C   UNL     1     -51.346 -62.540 -73.490  0.00  0.00    +0.000 A 
ATOM     18  C   UNL     1     -53.368 -62.763 -72.267  0.00  0.00    +0.000 A 
ATOM     19  C   UNL     1     -51.937 -63.221 -74.548  0.00  0.00    +0.000 A 
ATOM     20  C   UNL     1     -53.249 -63.635 -74.392  0.00  0.00    +0.000 A 
ENDBRANCH  12  16
ENDBRANCH   2   9
BRANCH   1  22
ATOM     21  O   UNL     1     -56.010 -58.671 -65.205  0.00  0.00    +0.000 OA
ATOM     22  N   UNL     1     -56.560 -59.035 -67.430  0.00  0.00    +0.000 N 
ATOM     23  C   UNL     1     -56.742 -59.155 -66.060  0.00  0.00    +0.000 C 
ATOM     24  H   UNL     1     -57.284 -59.374 -68.053  0.00  0.00    +0.000 HD
BRANCH  23  30
ATOM     25  C   UNL     1     -60.196 -61.368 -64.878  0.00  0.00    +0.000 A 
ATOM     26  C   UNL     1     -59.784 -60.286 -64.103  0.00  0.00    +0.000 A 
ATOM     27  C   UNL     1     -59.487 -61.724 -66.021  0.00  0.00    +0.000 A 
ATOM     28  C   UNL     1     -58.657 -59.557 -64.475  0.00  0.00    +0.000 A 
ATOM     29  C   UNL     1     -58.359 -60.995 -66.391  0.00  0.00    +0.000 A 
ATOM     30  C   UNL     1     -57.939 -59.909 -65.618  0.00  0.00    +0.000 A 
BRANCH  25  31
ATOM     31  C   UNL     1     -61.351 -62.113 -64.499  0.00  0.00    +0.000 C 
BRANCH  31  32
ATOM     32  N   UNL     1     -62.531 -62.878 -64.113  0.00  0.00    +0.000 N 
ATOM     33  N   UNL     1     -65.252 -62.736 -66.388  0.00  0.00    +0.000 N 
ATOM     34  C   UNL     1     -63.696 -61.956 -64.219  0.00  0.00    +0.000 C 
ATOM     35  C   UNL     1     -62.900 -63.724 -65.282  0.00  0.00    +0.000 C 
ATOM     36  C   UNL     1     -64.893 -61.899 -65.211  0.00  0.00    +0.000 C 
ATOM     37  C   UNL     1     -64.096 -63.666 -66.274  0.00  0.00    +0.000 C 
ATOM     38  C   UNL     1     -66.444 -63.491 -66.028  0.00  0.00    +0.000 C 
ENDBRANCH  31  32
ENDBRANCH  25  31
ENDBRANCH  23  30
ENDBRANCH   1  22
TORSDOF 6
ENDMDL
MODEL 2
REMARK VINA RESULT:      -6.4     49.977     52.475
REMARK  Name = 10074640_Masitinib.pdbqt.pdb
REMARK  6 active torsions:
REMARK  status: ('A' for Active; 'I' for Inactive)
REMARK    1  A    between atoms: C_1  and  N_22
REMARK    2  A    between atoms: C_2  and  N_9
REMARK    3  A    between atoms: C_12  and  C_16
REMARK    4  A    between atoms: C_23  and  C_30
REMARK    5  A    between atoms: C_25  and  C_31
REMARK    6  A    between atoms: C_31  and  N_32
REMARK                            x       y       z     vdW  Elec       q    Type
REMARK                         _______ _______ _______ _____ _____    ______ ____
ROOT
ATOM      1  C   UNL     1     -65.030 -53.316 -18.465  0.00  0.00    +0.000 A 
ATOM      2  C   UNL     1     -63.357 -53.795 -16.742  0.00  0.00    +0.000 A 
ATOM      3  C   UNL     1     -64.616 -53.320 -17.132  0.00  0.00    +0.000 A 
ATOM      4  C   UNL     1     -62.509 -54.277 -17.759  0.00  0.00    +0.000 A 
ATOM      5  C   UNL     1     -64.177 -53.821 -19.443  0.00  0.00    +0.000 A 
ATOM      6  C   UNL     1     -62.914 -54.292 -19.093  0.00  0.00    +0.000 A 
ATOM      7  C   UNL     1     -61.125 -54.799 -17.426  0.00  0.00    +0.000 C 
ENDROOT
BRANCH   2   9
ATOM      8  S   UNL     1     -62.731 -54.614 -12.840  0.00  0.00    +0.000 S 
ATOM      9  N   UNL     1     -62.959 -53.837 -15.385  0.00  0.00    +0.000 N 
ATOM     10  N   UNL     1     -63.722 -56.000 -14.757  0.00  0.00    +0.000 NA
ATOM     11  C   UNL     1     -63.189 -54.828 -14.495  0.00  0.00    +0.000 A 
ATOM     12  C   UNL     1     -63.820 -56.772 -13.615  0.00  0.00    +0.000 A 
ATOM     13  C   UNL     1     -63.327 -56.163 -12.487  0.00  0.00    +0.000 A 
ATOM     14  H   UNL     1     -62.427 -53.020 -15.090  0.00  0.00    +0.000 HD
BRANCH  12  16
ATOM     15  N   UNL     1     -65.315 -59.930 -14.934  0.00  0.00    +0.000 NA
ATOM     16  C   UNL     1     -64.380 -58.105 -13.638  0.00  0.00    +0.000 A 
ATOM     17  C   UNL     1     -64.499 -58.873 -12.484  0.00  0.00    +0.000 A 
ATOM     18  C   UNL     1     -64.807 -58.676 -14.829  0.00  0.00    +0.000 A 
ATOM     19  C   UNL     1     -65.027 -60.158 -12.545  0.00  0.00    +0.000 A 
ATOM     20  C   UNL     1     -65.415 -60.634 -13.786  0.00  0.00    +0.000 A 
ENDBRANCH  12  16
ENDBRANCH   2   9
BRANCH   1  22
ATOM     21  O   UNL     1     -65.814 -50.577 -19.035  0.00  0.00    +0.000 OA
ATOM     22  N   UNL     1     -66.294 -52.842 -18.872  0.00  0.00    +0.000 N 
ATOM     23  C   UNL     1     -66.609 -51.508 -19.081  0.00  0.00    +0.000 C 
ATOM     24  H   UNL     1     -67.000 -53.548 -19.046  0.00  0.00    +0.000 HD
BRANCH  23  30
ATOM     25  C   UNL     1     -70.694 -50.613 -19.946  0.00  0.00    +0.000 A 
ATOM     26  C   UNL     1     -70.006 -51.508 -20.763  0.00  0.00    +0.000 A 
ATOM     27  C   UNL     1     -70.055 -50.016 -18.864  0.00  0.00    +0.000 A 
ATOM     28  C   UNL     1     -68.672 -51.806 -20.495  0.00  0.00    +0.000 A 
ATOM     29  C   UNL     1     -68.721 -50.315 -18.597  0.00  0.00    +0.000 A 
ATOM     30  C   UNL     1     -68.024 -51.210 -19.413  0.00  0.00    +0.000 A 
BRANCH  25  31
ATOM     31  C   UNL     1     -72.060 -50.309 -20.220  0.00  0.00    +0.000 C 
BRANCH  31  32
ATOM     32  N   UNL     1     -73.457 -49.999 -20.498  0.00  0.00    +0.000 N 
ATOM     33  N   UNL     1     -75.013 -52.043 -22.948  0.00  0.00    +0.000 N 
ATOM     34  C   UNL     1     -73.583 -49.865 -21.976  0.00  0.00    +0.000 C 
ATOM     35  C   UNL     1     -74.211 -51.280 -20.397  0.00  0.00    +0.000 C 
ATOM     36  C   UNL     1     -74.273 -50.756 -23.048  0.00  0.00    +0.000 C 
ATOM     37  C   UNL     1     -74.900 -52.172 -21.469  0.00  0.00    +0.000 C 
ATOM     38  C   UNL     1     -76.410 -51.756 -23.245  0.00  0.00    +0.000 C 
ENDBRANCH  31  32
ENDBRANCH  25  31
ENDBRANCH  23  30
ENDBRANCH   1  22
TORSDOF 6
ENDMDL
MODEL 3
REMARK VINA RESULT:      -6.3      1.535      2.323
REMARK  Name = 10074640_Masitinib.pdbqt.pdb
REMARK  6 active torsions:
REMARK  status: ('A' for Active; 'I' for Inactive)
REMARK    1  A    between atoms: C_1  and  N_22
REMARK    2  A    between atoms: C_2  and  N_9
REMARK    3  A    between atoms: C_12  and  C_16
REMARK    4  A    between atoms: C_23  and  C_30
REMARK    5  A    between atoms: C_25  and  C_31
REMARK    6  A    between atoms: C_31  and  N_32
REMARK                            x       y       z     vdW  Elec       q    Type
REMARK                         _______ _______ _______ _____ _____    ______ ____
ROOT
ATOM      1  C   UNL     1     -55.812 -58.642 -67.937  0.00  0.00    +0.000 A 
ATOM      2  C   UNL     1     -53.448 -58.473 -68.557  0.00  0.00    +0.000 A 
ATOM      3  C   UNL     1     -54.516 -59.160 -67.965  0.00  0.00    +0.000 A 
ATOM      4  C   UNL     1     -53.732 -57.219 -69.133  0.00  0.00    +0.000 A 
ATOM      5  C   UNL     1     -56.063 -57.410 -68.537  0.00  0.00    +0.000 A 
ATOM      6  C   UNL     1     -55.024 -56.694 -69.125  0.00  0.00    +0.000 A 
ATOM      7  C   UNL     1     -52.633 -56.403 -69.784  0.00  0.00    +0.000 C 
ENDROOT
BRANCH   2   9
ATOM      8  S   UNL     1     -50.105 -60.623 -69.259  0.00  0.00    +0.000 S 
ATOM      9  N   UNL     1     -52.145 -59.023 -68.620  0.00  0.00    +0.000 N 
ATOM     10  N   UNL     1     -52.387 -60.547 -70.430  0.00  0.00    +0.000 NA
ATOM     11  C   UNL     1     -51.710 -60.002 -69.443  0.00  0.00    +0.000 A 
ATOM     12  C   UNL     1     -51.646 -61.525 -71.064  0.00  0.00    +0.000 A 
ATOM     13  C   UNL     1     -50.384 -61.692 -70.547  0.00  0.00    +0.000 A 
ATOM     14  H   UNL     1     -51.489 -58.594 -67.971  0.00  0.00    +0.000 HD
BRANCH  12  16
ATOM     15  N   UNL     1     -54.057 -63.405 -73.208  0.00  0.00    +0.000 NA
ATOM     16  C   UNL     1     -52.171 -62.279 -72.181  0.00  0.00    +0.000 A 
ATOM     17  C   UNL     1     -51.393 -62.578 -73.296  0.00  0.00    +0.000 A 
ATOM     18  C   UNL     1     -53.486 -62.719 -72.186  0.00  0.00    +0.000 A 
ATOM     19  C   UNL     1     -51.936 -63.291 -74.360  0.00  0.00    +0.000 A 
ATOM     20  C   UNL     1     -53.262 -63.676 -74.265  0.00  0.00    +0.000 A 
ENDBRANCH  12  16
ENDBRANCH   2   9
BRANCH   1  22
ATOM     21  O   UNL     1     -56.581 -58.688 -65.137  0.00  0.00    +0.000 OA
ATOM     22  N   UNL     1     -56.895 -59.322 -67.347  0.00  0.00    +0.000 N 
ATOM     23  C   UNL     1     -57.176 -59.337 -65.988  0.00  0.00    +0.000 C 
ATOM     24  H   UNL     1     -57.519 -59.806 -67.983  0.00  0.00    +0.000 HD
BRANCH  23  30
ATOM     25  C   UNL     1     -60.442 -61.750 -64.668  0.00  0.00    +0.000 A 
ATOM     26  C   UNL     1     -59.629 -62.212 -65.700  0.00  0.00    +0.000 A 
ATOM     27  C   UNL     1     -60.193 -60.514 -64.078  0.00  0.00    +0.000 A 
ATOM     28  C   UNL     1     -58.562 -61.434 -66.144  0.00  0.00    +0.000 A 
ATOM     29  C   UNL     1     -59.127 -59.737 -64.523  0.00  0.00    +0.000 A 
ATOM     30  C   UNL     1     -58.308 -60.193 -65.559  0.00  0.00    +0.000 A 
BRANCH  25  31
ATOM     31  C   UNL     1     -61.533 -62.547 -64.213  0.00  0.00    +0.000 C 
BRANCH  31  32
ATOM     32  N   UNL     1     -62.647 -63.364 -63.748  0.00  0.00    +0.000 N 
ATOM     33  N   UNL     1     -62.926 -63.699 -60.224  0.00  0.00    +0.000 N 
ATOM     34  C   UNL     1     -62.084 -64.358 -62.792  0.00  0.00    +0.000 C 
ATOM     35  C   UNL     1     -63.372 -62.562 -62.722  0.00  0.00    +0.000 C 
ATOM     36  C   UNL     1     -62.214 -64.510 -61.249  0.00  0.00    +0.000 C 
ATOM     37  C   UNL     1     -63.501 -62.713 -61.180  0.00  0.00    +0.000 C 
ATOM     38  C   UNL     1     -64.031 -64.510 -59.732  0.00  0.00    +0.000 C 
ENDBRANCH  31  32
ENDBRANCH  25  31
ENDBRANCH  23  30
ENDBRANCH   1  22
TORSDOF 6
ENDMDL
MODEL 4
REMARK VINA RESULT:      -6.3     18.327     22.069
REMARK  Name = 10074640_Masitinib.pdbqt.pdb
REMARK  6 active torsions:
REMARK  status: ('A' for Active; 'I' for Inactive)
REMARK    1  A    between atoms: C_1  and  N_22
REMARK    2  A    between atoms: C_2  and  N_9
REMARK    3  A    between atoms: C_12  and  C_16
REMARK    4  A    between atoms: C_23  and  C_30
REMARK    5  A    between atoms: C_25  and  C_31
REMARK    6  A    between atoms: C_31  and  N_32
REMARK                            x       y       z     vdW  Elec       q    Type
REMARK                         _______ _______ _______ _____ _____    ______ ____
ROOT
ATOM      1  C   UNL     1     -59.386 -43.300 -56.201  0.00  0.00    +0.000 A 
ATOM      2  C   UNL     1     -60.380 -43.610 -58.418  0.00  0.00    +0.000 A 
ATOM      3  C   UNL     1     -59.568 -44.050 -57.364  0.00  0.00    +0.000 A 
ATOM      4  C   UNL     1     -61.017 -42.363 -58.261  0.00  0.00    +0.000 A 
ATOM      5  C   UNL     1     -60.050 -42.082 -56.067  0.00  0.00    +0.000 A 
ATOM      6  C   UNL     1     -60.856 -41.608 -57.099  0.00  0.00    +0.000 A 
ATOM      7  C   UNL     1     -61.904 -41.806 -59.356  0.00  0.00    +0.000 C 
ENDROOT
BRANCH   2   9
ATOM      8  S   UNL     1     -61.584 -46.243 -61.230  0.00  0.00    +0.000 S 
ATOM      9  N   UNL     1     -60.595 -44.393 -59.577  0.00  0.00    +0.000 N 
ATOM     10  N   UNL     1     -62.614 -45.509 -58.998  0.00  0.00    +0.000 NA
ATOM     11  C   UNL     1     -61.587 -45.287 -59.787  0.00  0.00    +0.000 A 
ATOM     12  C   UNL     1     -63.435 -46.495 -59.510  0.00  0.00    +0.000 A 
ATOM     13  C   UNL     1     -63.013 -47.000 -60.717  0.00  0.00    +0.000 A 
ATOM     14  H   UNL     1     -59.917 -44.222 -60.317  0.00  0.00    +0.000 HD
BRANCH  12  16
ATOM     15  N   UNL     1     -65.885 -47.077 -56.754  0.00  0.00    +0.000 NA
ATOM     16  C   UNL     1     -64.632 -46.927 -58.825  0.00  0.00    +0.000 A 
ATOM     17  C   UNL     1     -65.685 -47.540 -59.498  0.00  0.00    +0.000 A 
ATOM     18  C   UNL     1     -64.781 -46.727 -57.460  0.00  0.00    +0.000 A 
ATOM     19  C   UNL     1     -66.829 -47.927 -58.809  0.00  0.00    +0.000 A 
ATOM     20  C   UNL     1     -66.877 -47.673 -57.449  0.00  0.00    +0.000 A 
ENDBRANCH  12  16
ENDBRANCH   2   9
BRANCH   1  22
ATOM     21  O   UNL     1     -56.520 -42.952 -55.882  0.00  0.00    +0.000 OA
ATOM     22  N   UNL     1     -58.574 -43.730 -55.133  0.00  0.00    +0.000 N 
ATOM     23  C   UNL     1     -57.198 -43.570 -55.070  0.00  0.00    +0.000 C 
ATOM     24  H   UNL     1     -59.055 -44.160 -54.351  0.00  0.00    +0.000 HD
BRANCH  23  30
ATOM     25  C   UNL     1     -55.149 -45.319 -51.757  0.00  0.00    +0.000 A 
ATOM     26  C   UNL     1     -56.533 -45.453 -51.848  0.00  0.00    +0.000 A 
ATOM     27  C   UNL     1     -54.445 -44.619 -52.732  0.00  0.00    +0.000 A 
ATOM     28  C   UNL     1     -57.214 -44.885 -52.922  0.00  0.00    +0.000 A 
ATOM     29  C   UNL     1     -55.128 -44.050 -53.804  0.00  0.00    +0.000 A 
ATOM     30  C   UNL     1     -56.516 -44.180 -53.902  0.00  0.00    +0.000 A 
BRANCH  25  31
ATOM     31  C   UNL     1     -54.450 -45.902 -50.659  0.00  0.00    +0.000 C 
BRANCH  31  32
ATOM     32  N   UNL     1     -53.738 -46.497 -49.535  0.00  0.00    +0.000 N 
ATOM     33  N   UNL     1     -53.626 -50.045 -49.506  0.00  0.00    +0.000 N 
ATOM     34  C   UNL     1     -54.644 -47.519 -48.942  0.00  0.00    +0.000 C 
ATOM     35  C   UNL     1     -52.765 -47.470 -50.107  0.00  0.00    +0.000 C 
ATOM     36  C   UNL     1     -54.590 -49.074 -48.922  0.00  0.00    +0.000 C 
ATOM     37  C   UNL     1     -52.712 -49.024 -50.087  0.00  0.00    +0.000 C 
ATOM     38  C   UNL     1     -52.920 -50.666 -48.395  0.00  0.00    +0.000 C 
ENDBRANCH  31  32
ENDBRANCH  25  31
ENDBRANCH  23  30
ENDBRANCH   1  22
TORSDOF 6
ENDMDL
MODEL 5
REMARK VINA RESULT:      -6.3     33.058     38.179
REMARK  Name = 10074640_Masitinib.pdbqt.pdb
REMARK  6 active torsions:
REMARK  status: ('A' for Active; 'I' for Inactive)
REMARK    1  A    between atoms: C_1  and  N_22
REMARK    2  A    between atoms: C_2  and  N_9
REMARK    3  A    between atoms: C_12  and  C_16
REMARK    4  A    between atoms: C_23  and  C_30
REMARK    5  A    between atoms: C_25  and  C_31
REMARK    6  A    between atoms: C_31  and  N_32
REMARK                            x       y       z     vdW  Elec       q    Type
REMARK                         _______ _______ _______ _____ _____    ______ ____
ROOT
ATOM      1  C   UNL     1     -65.518 -47.728 -34.943  0.00  0.00    +0.000 A 
ATOM      2  C   UNL     1     -66.723 -47.495 -32.823  0.00  0.00    +0.000 A 
ATOM      3  C   UNL     1     -65.802 -47.026 -33.770  0.00  0.00    +0.000 A 
ATOM      4  C   UNL     1     -67.363 -48.719 -33.101  0.00  0.00    +0.000 A 
ATOM      5  C   UNL     1     -66.185 -48.924 -35.197  0.00  0.00    +0.000 A 
ATOM      6  C   UNL     1     -67.099 -49.425 -34.274  0.00  0.00    +0.000 A 
ATOM      7  C   UNL     1     -68.364 -49.304 -32.125  0.00  0.00    +0.000 C 
ENDROOT
BRANCH   2   9
ATOM      8  S   UNL     1     -67.175 -46.016 -29.095  0.00  0.00    +0.000 S 
ATOM      9  N   UNL     1     -67.040 -46.758 -31.657  0.00  0.00    +0.000 N 
ATOM     10  N   UNL     1     -65.584 -47.775 -30.074  0.00  0.00    +0.000 NA
ATOM     11  C   UNL     1     -66.547 -46.947 -30.412  0.00  0.00    +0.000 A 
ATOM     12  C   UNL     1     -65.333 -47.722 -28.716  0.00  0.00    +0.000 A 
ATOM     13  C   UNL     1     -66.115 -46.818 -28.040  0.00  0.00    +0.000 A 
ATOM     14  H   UNL     1     -67.700 -46.001 -31.819  0.00  0.00    +0.000 HD
BRANCH  12  16
ATOM     15  N   UNL     1     -63.729 -50.649 -27.042  0.00  0.00    +0.000 NA
ATOM     16  C   UNL     1     -64.321 -48.545 -28.093  0.00  0.00    +0.000 A 
ATOM     17  C   UNL     1     -63.002 -48.118 -27.965  0.00  0.00    +0.000 A 
ATOM     18  C   UNL     1     -64.630 -49.809 -27.612  0.00  0.00    +0.000 A 
ATOM     19  C   UNL     1     -62.051 -48.942 -27.375  0.00  0.00    +0.000 A 
ATOM     20  C   UNL     1     -62.464 -50.188 -26.935  0.00  0.00    +0.000 A 
ENDBRANCH  12  16
ENDBRANCH   2   9
BRANCH   1  22
ATOM     21  O   UNL     1     -65.978 -47.227 -37.767  0.00  0.00    +0.000 OA
ATOM     22  N   UNL     1     -64.595 -47.268 -35.904  0.00  0.00    +0.000 N 
ATOM     23  C   UNL     1     -64.875 -47.096 -37.251  0.00  0.00    +0.000 C 
ATOM     24  H   UNL     1     -63.674 -47.025 -35.558  0.00  0.00    +0.000 HD
BRANCH  23  30
ATOM     25  C   UNL     1     -61.584 -45.862 -39.676  0.00  0.00    +0.000 A 
ATOM     26  C   UNL     1     -62.501 -46.776 -40.189  0.00  0.00    +0.000 A 
ATOM     27  C   UNL     1     -61.738 -45.360 -38.387  0.00  0.00    +0.000 A 
ATOM     28  C   UNL     1     -63.577 -47.191 -39.408  0.00  0.00    +0.000 A 
ATOM     29  C   UNL     1     -62.814 -45.777 -37.607  0.00  0.00    +0.000 A 
ATOM     30  C   UNL     1     -63.737 -46.695 -38.114  0.00  0.00    +0.000 A 
BRANCH  25  31
ATOM     31  C   UNL     1     -60.483 -45.436 -40.476  0.00  0.00    +0.000 C 
BRANCH  31  32
ATOM     32  N   UNL     1     -59.356 -45.003 -41.293  0.00  0.00    +0.000 N 
ATOM     33  N   UNL     1     -58.841 -46.849 -44.281  0.00  0.00    +0.000 N 
ATOM     34  C   UNL     1     -58.546 -46.217 -41.589  0.00  0.00    +0.000 C 
ATOM     35  C   UNL     1     -59.872 -44.823 -42.679  0.00  0.00    +0.000 C 
ATOM     36  C   UNL     1     -58.313 -47.020 -42.901  0.00  0.00    +0.000 C 
ATOM     37  C   UNL     1     -59.640 -45.627 -43.990  0.00  0.00    +0.000 C 
ATOM     38  C   UNL     1     -57.723 -46.437 -45.118  0.00  0.00    +0.000 C 
ENDBRANCH  31  32
ENDBRANCH  25  31
ENDBRANCH  23  30
ENDBRANCH   1  22
TORSDOF 6
ENDMDL
MODEL 6
REMARK VINA RESULT:      -6.2     10.356     15.079
REMARK  Name = 10074640_Masitinib.pdbqt.pdb
REMARK  6 active torsions:
REMARK  status: ('A' for Active; 'I' for Inactive)
REMARK    1  A    between atoms: C_1  and  N_22
REMARK    2  A    between atoms: C_2  and  N_9
REMARK    3  A    between atoms: C_12  and  C_16
REMARK    4  A    between atoms: C_23  and  C_30
REMARK    5  A    between atoms: C_25  and  C_31
REMARK    6  A    between atoms: C_31  and  N_32
REMARK                            x       y       z     vdW  Elec       q    Type
REMARK                         _______ _______ _______ _____ _____    ______ ____
ROOT
ATOM      1  C   UNL     1     -64.856 -61.016 -76.730  0.00  0.00    +0.000 A 
ATOM      2  C   UNL     1     -65.851 -61.730 -74.609  0.00  0.00    +0.000 A 
ATOM      3  C   UNL     1     -65.006 -60.891 -75.348  0.00  0.00    +0.000 A 
ATOM      4  C   UNL     1     -66.554 -62.722 -75.321  0.00  0.00    +0.000 A 
ATOM      5  C   UNL     1     -65.584 -61.992 -77.407  0.00  0.00    +0.000 A 
ATOM      6  C   UNL     1     -66.425 -62.850 -76.704  0.00  0.00    +0.000 A 
ATOM      7  C   UNL     1     -67.480 -63.679 -74.598  0.00  0.00    +0.000 C 
ENDROOT
BRANCH   2   9
ATOM      8  S   UNL     1     -65.801 -61.930 -70.578  0.00  0.00    +0.000 S 
ATOM      9  N   UNL     1     -66.032 -61.571 -73.214  0.00  0.00    +0.000 N 
ATOM     10  N   UNL     1     -64.243 -62.894 -72.374  0.00  0.00    +0.000 NA
ATOM     11  C   UNL     1     -65.321 -62.157 -72.225  0.00  0.00    +0.000 A 
ATOM     12  C   UNL     1     -63.772 -63.342 -71.155  0.00  0.00    +0.000 A 
ATOM     13  C   UNL     1     -64.508 -62.909 -70.079  0.00  0.00    +0.000 A 
ATOM     14  H   UNL     1     -66.778 -60.922 -72.971  0.00  0.00    +0.000 HD
BRANCH  12  16
ATOM     15  N   UNL     1     -61.399 -66.157 -71.777  0.00  0.00    +0.000 NA
ATOM     16  C   UNL     1     -62.597 -64.178 -71.050  0.00  0.00    +0.000 A 
ATOM     17  C   UNL     1     -61.534 -63.851 -70.212  0.00  0.00    +0.000 A 
ATOM     18  C   UNL     1     -62.481 -65.340 -71.800  0.00  0.00    +0.000 A 
ATOM     19  C   UNL     1     -60.412 -64.670 -70.148  0.00  0.00    +0.000 A 
ATOM     20  C   UNL     1     -60.396 -65.801 -70.946  0.00  0.00    +0.000 A 
ENDBRANCH  12  16
ENDBRANCH   2   9
BRANCH   1  22
ATOM     21  O   UNL     1     -65.617 -58.969 -78.645  0.00  0.00    +0.000 OA
ATOM     22  N   UNL     1     -64.011 -60.179 -77.486  0.00  0.00    +0.000 N 
ATOM     23  C   UNL     1     -64.446 -59.251 -78.421  0.00  0.00    +0.000 C 
ATOM     24  H   UNL     1     -63.019 -60.257 -77.296  0.00  0.00    +0.000 HD
BRANCH  23  30
ATOM     25  C   UNL     1     -61.352 -57.274 -80.600  0.00  0.00    +0.000 A 
ATOM     26  C   UNL     1     -62.360 -56.515 -80.011  0.00  0.00    +0.000 A 
ATOM     27  C   UNL     1     -61.357 -58.661 -80.482  0.00  0.00    +0.000 A 
ATOM     28  C   UNL     1     -63.378 -57.147 -79.300  0.00  0.00    +0.000 A 
ATOM     29  C   UNL     1     -62.376 -59.291 -79.772  0.00  0.00    +0.000 A 
ATOM     30  C   UNL     1     -63.391 -58.536 -79.180  0.00  0.00    +0.000 A 
BRANCH  25  31
ATOM     31  C   UNL     1     -60.309 -56.627 -81.327  0.00  0.00    +0.000 C 
BRANCH  31  32
ATOM     32  N   UNL     1     -59.243 -55.969 -82.070  0.00  0.00    +0.000 N 
ATOM     33  N   UNL     1     -56.403 -55.031 -80.157  0.00  0.00    +0.000 N 
ATOM     34  C   UNL     1     -58.906 -54.722 -81.329  0.00  0.00    +0.000 C 
ATOM     35  C   UNL     1     -57.979 -56.687 -81.741  0.00  0.00    +0.000 C 
ATOM     36  C   UNL     1     -57.658 -54.308 -80.498  0.00  0.00    +0.000 C 
ATOM     37  C   UNL     1     -56.732 -56.273 -80.909  0.00  0.00    +0.000 C 
ATOM     38  C   UNL     1     -55.322 -54.372 -80.875  0.00  0.00    +0.000 C 
ENDBRANCH  31  32
ENDBRANCH  25  31
ENDBRANCH  23  30
ENDBRANCH   1  22
TORSDOF 6
ENDMDL
MODEL 7
REMARK VINA RESULT:      -6.1     18.369     22.695
REMARK  Name = 10074640_Masitinib.pdbqt.pdb
REMARK  6 active torsions:
REMARK  status: ('A' for Active; 'I' for Inactive)
REMARK    1  A    between atoms: C_1  and  N_22
REMARK    2  A    between atoms: C_2  and  N_9
REMARK    3  A    between atoms: C_12  and  C_16
REMARK    4  A    between atoms: C_23  and  C_30
REMARK    5  A    between atoms: C_25  and  C_31
REMARK    6  A    between atoms: C_31  and  N_32
REMARK                            x       y       z     vdW  Elec       q    Type
REMARK                         _______ _______ _______ _____ _____    ______ ____
ROOT
ATOM      1  C   UNL     1     -61.413 -45.772 -58.380  0.00  0.00    +0.000 A 
ATOM      2  C   UNL     1     -63.816 -46.224 -58.524  0.00  0.00    +0.000 A 
ATOM      3  C   UNL     1     -62.709 -45.665 -57.872  0.00  0.00    +0.000 A 
ATOM      4  C   UNL     1     -63.572 -46.909 -59.731  0.00  0.00    +0.000 A 
ATOM      5  C   UNL     1     -61.209 -46.435 -59.587  0.00  0.00    +0.000 A 
ATOM      6  C   UNL     1     -62.284 -47.012 -60.258  0.00  0.00    +0.000 A 
ATOM      7  C   UNL     1     -64.710 -47.554 -60.496  0.00  0.00    +0.000 C 
ENDROOT
BRANCH   2   9
ATOM      8  S   UNL     1     -67.395 -46.539 -56.685  0.00  0.00    +0.000 S 
ATOM      9  N   UNL     1     -65.132 -46.076 -58.027  0.00  0.00    +0.000 N 
ATOM     10  N   UNL     1     -65.137 -47.690 -56.280  0.00  0.00    +0.000 NA
ATOM     11  C   UNL     1     -65.721 -46.795 -57.045  0.00  0.00    +0.000 A 
ATOM     12  C   UNL     1     -66.033 -48.241 -55.383  0.00  0.00    +0.000 A 
ATOM     13  C   UNL     1     -67.303 -47.726 -55.475  0.00  0.00    +0.000 A 
ATOM     14  H   UNL     1     -65.654 -45.324 -58.471  0.00  0.00    +0.000 HD
BRANCH  12  16
ATOM     15  N   UNL     1     -66.243 -51.198 -53.113  0.00  0.00    +0.000 NA
ATOM     16  C   UNL     1     -65.637 -49.257 -54.434  0.00  0.00    +0.000 A 
ATOM     17  C   UNL     1     -64.335 -49.343 -53.949  0.00  0.00    +0.000 A 
ATOM     18  C   UNL     1     -66.548 -50.200 -53.980  0.00  0.00    +0.000 A 
ATOM     19  C   UNL     1     -63.984 -50.343 -53.049  0.00  0.00    +0.000 A 
ATOM     20  C   UNL     1     -64.969 -51.238 -52.668  0.00  0.00    +0.000 A 
ENDBRANCH  12  16
ENDBRANCH   2   9
BRANCH   1  22
ATOM     21  O   UNL     1     -60.477 -43.024 -58.480  0.00  0.00    +0.000 OA
ATOM     22  N   UNL     1     -60.291 -45.214 -57.735  0.00  0.00    +0.000 N 
ATOM     23  C   UNL     1     -59.875 -43.897 -57.867  0.00  0.00    +0.000 C 
ATOM     24  H   UNL     1     -59.782 -45.830 -57.112  0.00  0.00    +0.000 HD
BRANCH  23  30
ATOM     25  C   UNL     1     -56.226 -42.777 -55.954  0.00  0.00    +0.000 A 
ATOM     26  C   UNL     1     -56.787 -44.020 -55.672  0.00  0.00    +0.000 A 
ATOM     27  C   UNL     1     -56.850 -41.910 -56.846  0.00  0.00    +0.000 A 
ATOM     28  C   UNL     1     -57.979 -44.397 -56.287  0.00  0.00    +0.000 A 
ATOM     29  C   UNL     1     -58.043 -42.288 -57.458  0.00  0.00    +0.000 A 
ATOM     30  C   UNL     1     -58.613 -43.533 -57.179  0.00  0.00    +0.000 A 
BRANCH  25  31
ATOM     31  C   UNL     1     -55.004 -42.391 -55.327  0.00  0.00    +0.000 C 
BRANCH  31  32
ATOM     32  N   UNL     1     -53.756 -41.995 -54.688  0.00  0.00    +0.000 N 
ATOM     33  N   UNL     1     -52.922 -43.778 -51.733  0.00  0.00    +0.000 N 
ATOM     34  C   UNL     1     -54.065 -41.748 -53.252  0.00  0.00    +0.000 C 
ATOM     35  C   UNL     1     -52.972 -43.241 -54.462  0.00  0.00    +0.000 C 
ATOM     36  C   UNL     1     -53.692 -42.524 -51.957  0.00  0.00    +0.000 C 
ATOM     37  C   UNL     1     -52.599 -44.018 -53.167  0.00  0.00    +0.000 C 
ATOM     38  C   UNL     1     -51.679 -43.402 -51.074  0.00  0.00    +0.000 C 
ENDBRANCH  31  32
ENDBRANCH  25  31
ENDBRANCH  23  30
ENDBRANCH   1  22
TORSDOF 6
ENDMDL
MODEL 8
REMARK VINA RESULT:      -6.1     11.479     13.763
REMARK  Name = 10074640_Masitinib.pdbqt.pdb
REMARK  6 active torsions:
REMARK  status: ('A' for Active; 'I' for Inactive)
REMARK    1  A    between atoms: C_1  and  N_22
REMARK    2  A    between atoms: C_2  and  N_9
REMARK    3  A    between atoms: C_12  and  C_16
REMARK    4  A    between atoms: C_23  and  C_30
REMARK    5  A    between atoms: C_25  and  C_31
REMARK    6  A    between atoms: C_31  and  N_32
REMARK                            x       y       z     vdW  Elec       q    Type
REMARK                         _______ _______ _______ _____ _____    ______ ____
ROOT
ATOM      1  C   UNL     1     -63.029 -59.728 -77.902  0.00  0.00    +0.000 A 
ATOM      2  C   UNL     1     -62.559 -57.808 -79.348  0.00  0.00    +0.000 A 
ATOM      3  C   UNL     1     -63.150 -58.372 -78.209  0.00  0.00    +0.000 A 
ATOM      4  C   UNL     1     -61.827 -58.672 -80.186  0.00  0.00    +0.000 A 
ATOM      5  C   UNL     1     -62.278 -60.550 -78.739  0.00  0.00    +0.000 A 
ATOM      6  C   UNL     1     -61.686 -60.027 -79.885  0.00  0.00    +0.000 A 
ATOM      7  C   UNL     1     -61.166 -58.148 -81.445  0.00  0.00    +0.000 C 
ENDROOT
BRANCH   2   9
ATOM      8  S   UNL     1     -63.667 -54.021 -80.194  0.00  0.00    +0.000 S 
ATOM      9  N   UNL     1     -62.649 -56.425 -79.632  0.00  0.00    +0.000 N 
ATOM     10  N   UNL     1     -64.987 -56.064 -79.377  0.00  0.00    +0.000 NA
ATOM     11  C   UNL     1     -63.772 -55.674 -79.693  0.00  0.00    +0.000 A 
ATOM     12  C   UNL     1     -65.903 -55.046 -79.562  0.00  0.00    +0.000 A 
ATOM     13  C   UNL     1     -65.347 -53.870 -80.005  0.00  0.00    +0.000 A 
ATOM     14  H   UNL     1     -61.747 -55.980 -79.783  0.00  0.00    +0.000 HD
BRANCH  12  16
ATOM     15  N   UNL     1     -69.578 -54.390 -79.498  0.00  0.00    +0.000 NA
ATOM     16  C   UNL     1     -67.311 -55.226 -79.290  0.00  0.00    +0.000 A 
ATOM     17  C   UNL     1     -67.796 -56.355 -78.636  0.00  0.00    +0.000 A 
ATOM     18  C   UNL     1     -68.240 -54.277 -79.692  0.00  0.00    +0.000 A 
ATOM     19  C   UNL     1     -69.159 -56.503 -78.405  0.00  0.00    +0.000 A 
ATOM     20  C   UNL     1     -69.999 -55.499 -78.855  0.00  0.00    +0.000 A 
ENDBRANCH  12  16
ENDBRANCH   2   9
BRANCH   1  22
ATOM     21  O   UNL     1     -65.706 -60.823 -77.628  0.00  0.00    +0.000 OA
ATOM     22  N   UNL     1     -63.616 -60.309 -76.759  0.00  0.00    +0.000 N 
ATOM     23  C   UNL     1     -64.922 -60.770 -76.688  0.00  0.00    +0.000 C 
ATOM     24  H   UNL     1     -63.013 -60.413 -75.951  0.00  0.00    +0.000 HD
BRANCH  23  30
ATOM     25  C   UNL     1     -66.141 -62.153 -72.837  0.00  0.00    +0.000 A 
ATOM     26  C   UNL     1     -66.868 -62.542 -73.960  0.00  0.00    +0.000 A 
ATOM     27  C   UNL     1     -65.034 -61.321 -72.970  0.00  0.00    +0.000 A 
ATOM     28  C   UNL     1     -66.484 -62.095 -75.222  0.00  0.00    +0.000 A 
ATOM     29  C   UNL     1     -64.652 -60.874 -74.232  0.00  0.00    +0.000 A 
ATOM     30  C   UNL     1     -65.376 -61.259 -75.363  0.00  0.00    +0.000 A 
BRANCH  25  31
ATOM     31  C   UNL     1     -66.533 -62.612 -71.544  0.00  0.00    +0.000 C 
BRANCH  31  32
ATOM     32  N   UNL     1     -66.933 -63.082 -70.224  0.00  0.00    +0.000 N 
ATOM     33  N   UNL     1     -66.792 -60.659 -67.633  0.00  0.00    +0.000 N 
ATOM     34  C   UNL     1     -65.849 -62.693 -69.280  0.00  0.00    +0.000 C 
ATOM     35  C   UNL     1     -67.940 -62.113 -69.707  0.00  0.00    +0.000 C 
ATOM     36  C   UNL     1     -65.790 -61.637 -68.139  0.00  0.00    +0.000 C 
ATOM     37  C   UNL     1     -67.881 -61.058 -68.567  0.00  0.00    +0.000 C 
ATOM     38  C   UNL     1     -67.187 -61.103 -66.304  0.00  0.00    +0.000 C 
ENDBRANCH  31  32
ENDBRANCH  25  31
ENDBRANCH  23  30
ENDBRANCH   1  22
TORSDOF 6
ENDMDL
MODEL 9
REMARK VINA RESULT:      -6.0     18.527     21.892
REMARK  Name = 10074640_Masitinib.pdbqt.pdb
REMARK  6 active torsions:
REMARK  status: ('A' for Active; 'I' for Inactive)
REMARK    1  A    between atoms: C_1  and  N_22
REMARK    2  A    between atoms: C_2  and  N_9
REMARK    3  A    between atoms: C_12  and  C_16
REMARK    4  A    between atoms: C_23  and  C_30
REMARK    5  A    between atoms: C_25  and  C_31
REMARK    6  A    between atoms: C_31  and  N_32
REMARK                            x       y       z     vdW  Elec       q    Type
REMARK                         _______ _______ _______ _____ _____    ______ ____
ROOT
ATOM      1  C   UNL     1     -56.111 -43.609 -56.910  0.00  0.00    +0.000 A 
ATOM      2  C   UNL     1     -57.340 -42.334 -58.602  0.00  0.00    +0.000 A 
ATOM      3  C   UNL     1     -57.247 -42.913 -57.330  0.00  0.00    +0.000 A 
ATOM      4  C   UNL     1     -56.231 -42.481 -59.458  0.00  0.00    +0.000 A 
ATOM      5  C   UNL     1     -55.023 -43.716 -57.772  0.00  0.00    +0.000 A 
ATOM      6  C   UNL     1     -55.084 -43.161 -59.048  0.00  0.00    +0.000 A 
ATOM      7  C   UNL     1     -56.252 -41.895 -60.856  0.00  0.00    +0.000 C 
ENDROOT
BRANCH   2   9
ATOM      8  S   UNL     1     -60.858 -40.986 -60.051  0.00  0.00    +0.000 S 
ATOM      9  N   UNL     1     -58.476 -41.593 -59.007  0.00  0.00    +0.000 N 
ATOM     10  N   UNL     1     -59.990 -43.347 -59.544  0.00  0.00    +0.000 NA
ATOM     11  C   UNL     1     -59.643 -42.081 -59.483  0.00  0.00    +0.000 A 
ATOM     12  C   UNL     1     -61.249 -43.495 -60.092  0.00  0.00    +0.000 A 
ATOM     13  C   UNL     1     -61.856 -42.308 -60.423  0.00  0.00    +0.000 A 
ATOM     14  H   UNL     1     -58.368 -40.587 -58.895  0.00  0.00    +0.000 HD
BRANCH  12  16
ATOM     15  N   UNL     1     -61.778 -46.984 -61.311  0.00  0.00    +0.000 NA
ATOM     16  C   UNL     1     -61.857 -44.794 -60.273  0.00  0.00    +0.000 A 
ATOM     17  C   UNL     1     -63.024 -45.160 -59.607  0.00  0.00    +0.000 A 
ATOM     18  C   UNL     1     -61.283 -45.737 -61.113  0.00  0.00    +0.000 A 
ATOM     19  C   UNL     1     -63.572 -46.425 -59.792  0.00  0.00    +0.000 A 
ATOM     20  C   UNL     1     -62.912 -47.291 -60.647  0.00  0.00    +0.000 A 
ENDBRANCH  12  16
ENDBRANCH   2   9
BRANCH   1  22
ATOM     21  O   UNL     1     -55.075 -42.411 -54.475  0.00  0.00    +0.000 OA
ATOM     22  N   UNL     1     -56.003 -44.195 -55.633  0.00  0.00    +0.000 N 
ATOM     23  C   UNL     1     -55.452 -43.576 -54.521  0.00  0.00    +0.000 C 
ATOM     24  H   UNL     1     -56.389 -45.128 -55.536  0.00  0.00    +0.000 HD
BRANCH  23  30
ATOM     25  C   UNL     1     -55.050 -45.976 -51.013  0.00  0.00    +0.000 A 
ATOM     26  C   UNL     1     -56.321 -45.581 -51.424  0.00  0.00    +0.000 A 
ATOM     27  C   UNL     1     -53.926 -45.589 -51.736  0.00  0.00    +0.000 A 
ATOM     28  C   UNL     1     -56.467 -44.794 -52.565  0.00  0.00    +0.000 A 
ATOM     29  C   UNL     1     -54.073 -44.802 -52.875  0.00  0.00    +0.000 A 
ATOM     30  C   UNL     1     -55.344 -44.401 -53.294  0.00  0.00    +0.000 A 
BRANCH  25  31
ATOM     31  C   UNL     1     -54.901 -46.782 -49.846  0.00  0.00    +0.000 C 
BRANCH  31  32
ATOM     32  N   UNL     1     -54.746 -47.605 -48.653  0.00  0.00    +0.000 N 
ATOM     33  N   UNL     1     -52.028 -49.888 -48.715  0.00  0.00    +0.000 N 
ATOM     34  C   UNL     1     -54.639 -49.017 -49.113  0.00  0.00    +0.000 C 
ATOM     35  C   UNL     1     -53.325 -47.478 -48.222  0.00  0.00    +0.000 C 
ATOM     36  C   UNL     1     -53.450 -50.020 -49.132  0.00  0.00    +0.000 C 
ATOM     37  C   UNL     1     -52.136 -48.481 -48.242  0.00  0.00    +0.000 C 
ATOM     38  C   UNL     1     -51.849 -50.722 -47.535  0.00  0.00    +0.000 C 
ENDBRANCH  31  32
ENDBRANCH  25  31
ENDBRANCH  23  30
ENDBRANCH   1  22
TORSDOF 6
ENDMDL
