MODEL 1
REMARK VINA RESULT:      -5.6      0.000      0.000
REMARK  Name = 101808841_CandidaspongiolideA.pdbqt.pdb
REMARK  13 active torsions:
REMARK  status: ('A' for Active; 'I' for Inactive)
REMARK    1  A    between atoms: C_6  and  C_39
REMARK    2  A    between atoms: C_9  and  O_27
REMARK    3  A    between atoms: C_9  and  C_51
REMARK    4  A    between atoms: C_10  and  O_29
REMARK    5  A    between atoms: C_14  and  O_31
REMARK    6  A    between atoms: C_15  and  O_33
REMARK    7  A    between atoms: C_20  and  O_35
REMARK    8  A    between atoms: O_35  and  C_37
REMARK    9  A    between atoms: C_39  and  C_41
REMARK   10  A    between atoms: C_39  and  O_49
REMARK   11  A    between atoms: C_42  and  C_44
REMARK   12  A    between atoms: C_44  and  C_46
REMARK   13  A    between atoms: C_51  and  O_52
REMARK                            x       y       z     vdW  Elec       q    Type
REMARK                         _______ _______ _______ _____ _____    ______ ____
ROOT
ATOM      1  O   UNL     1     -63.898 -46.325 -56.661  0.00  0.00    +0.000 OA
ATOM      2  O   UNL     1     -66.229 -46.033 -53.231  0.00  0.00    +0.000 OA
ATOM      3  O   UNL     1     -65.454 -47.591 -57.800  0.00  0.00    +0.000 OA
ATOM      4  O   UNL     1     -60.085 -45.209 -50.981  0.00  0.00    +0.000 OA
ATOM      5  O   UNL     1     -61.954 -44.277 -56.310  0.00  0.00    +0.000 OA
ATOM      6  C   UNL     1     -64.593 -47.403 -54.226  0.00  0.00    +0.000 C 
ATOM      7  C   UNL     1     -65.061 -46.424 -53.196  0.00  0.00    +0.000 C 
ATOM      8  C   UNL     1     -64.227 -46.887 -55.501  0.00  0.00    +0.000 C 
ATOM      9  C   UNL     1     -63.983 -45.902 -52.207  0.00  0.00    +0.000 C 
ATOM     10  C   UNL     1     -63.067 -44.904 -52.894  0.00  0.00    +0.000 C 
ATOM     11  C   UNL     1     -61.697 -44.740 -52.535  0.00  0.00    +0.000 C 
ATOM     12  C   UNL     1     -64.643 -46.677 -57.736  0.00  0.00    +0.000 C 
ATOM     13  C   UNL     1     -60.323 -44.679 -52.061  0.00  0.00    +0.000 C 
ATOM     14  C   UNL     1     -64.402 -45.763 -58.876  0.00  0.00    +0.000 C 
ATOM     15  C   UNL     1     -63.392 -44.725 -58.904  0.00  0.00    +0.000 C 
ATOM     16  C   UNL     1     -59.275 -43.990 -52.882  0.00  0.00    +0.000 C 
ATOM     17  C   UNL     1     -61.974 -44.887 -58.609  0.00  0.00    +0.000 C 
ATOM     18  C   UNL     1     -60.145 -43.409 -57.617  0.00  0.00    +0.000 C 
ATOM     19  C   UNL     1     -61.418 -44.178 -57.415  0.00  0.00    +0.000 C 
ATOM     20  C   UNL     1     -59.366 -43.003 -56.444  0.00  0.00    +0.000 C 
ATOM     21  C   UNL     1     -59.590 -43.291 -54.074  0.00  0.00    +0.000 C 
ATOM     22  C   UNL     1     -59.905 -42.645 -55.152  0.00  0.00    +0.000 C 
ATOM     23  C   UNL     1     -57.809 -43.970 -52.505  0.00  0.00    +0.000 C 
ATOM     24  C   UNL     1     -61.283 -46.189 -59.018  0.00  0.00    +0.000 C 
ATOM     25  C   UNL     1     -59.714 -42.965 -59.010  0.00  0.00    +0.000 C 
ATOM     26  C   UNL     1     -60.995 -41.614 -55.002  0.00  0.00    +0.000 C 
ENDROOT
BRANCH   9  27
ATOM     27  O   UNL     1     -63.192 -47.002 -51.755  0.00  0.00    +0.000 OA
ATOM     28  H   UNL     1     -63.564 -47.807 -52.160  0.00  0.00    +0.000 HD
ENDBRANCH   9  27
BRANCH  10  29
ATOM     29  O   UNL     1     -63.598 -44.106 -53.888  0.00  0.00    +0.000 OA
ATOM     30  H   UNL     1     -63.794 -43.195 -53.600  0.00  0.00    +0.000 HD
ENDBRANCH  10  29
BRANCH  14  31
ATOM     31  O   UNL     1     -65.224 -45.855 -59.986  0.00  0.00    +0.000 OA
ATOM     32  H   UNL     1     -65.368 -46.793 -60.233  0.00  0.00    +0.000 HD
ENDBRANCH  14  31
BRANCH  15  33
ATOM     33  O   UNL     1     -63.704 -43.657 -59.728  0.00  0.00    +0.000 OA
ATOM     34  C   UNL     1     -64.322 -42.636 -58.991  0.00  0.00    +0.000 C 
ENDBRANCH  15  33
BRANCH  20  35
ATOM     35  O   UNL     1     -58.024 -42.576 -56.632  0.00  0.00    +0.000 OA
BRANCH  35  37
ATOM     36  O   UNL     1     -57.109 -44.658 -56.111  0.00  0.00    +0.000 OA
ATOM     37  C   UNL     1     -57.120 -43.588 -56.687  0.00  0.00    +0.000 C 
ATOM     38  C   UNL     1     -55.941 -43.314 -57.546  0.00  0.00    +0.000 C 
ENDBRANCH  35  37
ENDBRANCH  20  35
BRANCH   6  39
ATOM     39  C   UNL     1     -64.618 -48.826 -53.955  0.00  0.00    +0.000 C 
BRANCH  39  41
ATOM     40  O   UNL     1     -65.813 -50.871 -53.011  0.00  0.00    +0.000 OA
ATOM     41  C   UNL     1     -65.866 -49.516 -53.522  0.00  0.00    +0.000 C 
ATOM     42  C   UNL     1     -65.903 -49.857 -52.102  0.00  0.00    +0.000 C 
ATOM     43  C   UNL     1     -67.134 -49.380 -54.433  0.00  0.00    +0.000 C 
BRANCH  42  44
ATOM     44  C   UNL     1     -67.098 -49.735 -51.317  0.00  0.00    +0.000 C 
ATOM     45  C   UNL     1     -67.698 -50.952 -50.659  0.00  0.00    +0.000 C 
BRANCH  44  46
ATOM     46  C   UNL     1     -67.392 -48.487 -50.706  0.00  0.00    +0.000 C 
ATOM     47  C   UNL     1     -67.739 -47.452 -50.210  0.00  0.00    +0.000 C 
ATOM     48  C   UNL     1     -68.314 -46.149 -49.635  0.00  0.00    +0.000 C 
ENDBRANCH  44  46
ENDBRANCH  42  44
ENDBRANCH  39  41
BRANCH  39  49
ATOM     49  O   UNL     1     -63.532 -49.535 -54.448  0.00  0.00    +0.000 OA
ATOM     50  H   UNL     1     -63.153 -50.147 -53.787  0.00  0.00    +0.000 HD
ENDBRANCH  39  49
ENDBRANCH   6  39
BRANCH   9  51
ATOM     51  C   UNL     1     -64.616 -45.250 -51.036  0.00  0.00    +0.000 C 
BRANCH  51  52
ATOM     52  O   UNL     1     -65.197 -44.686 -49.977  0.00  0.00    +0.000 OA
ATOM     53  H   UNL     1     -66.141 -44.517 -50.153  0.00  0.00    +0.000 HD
ENDBRANCH  51  52
ENDBRANCH   9  51
TORSDOF 13
ENDMDL
MODEL 2
REMARK VINA RESULT:      -5.3      7.223     12.375
REMARK  Name = 101808841_CandidaspongiolideA.pdbqt.pdb
REMARK  13 active torsions:
REMARK  status: ('A' for Active; 'I' for Inactive)
REMARK    1  A    between atoms: C_6  and  C_39
REMARK    2  A    between atoms: C_9  and  O_27
REMARK    3  A    between atoms: C_9  and  C_51
REMARK    4  A    between atoms: C_10  and  O_29
REMARK    5  A    between atoms: C_14  and  O_31
REMARK    6  A    between atoms: C_15  and  O_33
REMARK    7  A    between atoms: C_20  and  O_35
REMARK    8  A    between atoms: O_35  and  C_37
REMARK    9  A    between atoms: C_39  and  C_41
REMARK   10  A    between atoms: C_39  and  O_49
REMARK   11  A    between atoms: C_42  and  C_44
REMARK   12  A    between atoms: C_44  and  C_46
REMARK   13  A    between atoms: C_51  and  O_52
REMARK                            x       y       z     vdW  Elec       q    Type
REMARK                         _______ _______ _______ _____ _____    ______ ____
ROOT
ATOM      1  O   UNL     1     -65.332 -55.833 -51.422  0.00  0.00    +0.000 OA
ATOM      2  O   UNL     1     -67.786 -56.819 -54.630  0.00  0.00    +0.000 OA
ATOM      3  O   UNL     1     -67.073 -55.046 -50.130  0.00  0.00    +0.000 OA
ATOM      4  O   UNL     1     -61.890 -55.895 -57.439  0.00  0.00    +0.000 OA
ATOM      5  O   UNL     1     -62.927 -57.249 -51.976  0.00  0.00    +0.000 OA
ATOM      6  C   UNL     1     -66.522 -55.028 -53.769  0.00  0.00    +0.000 C 
ATOM      7  C   UNL     1     -66.785 -56.112 -54.766  0.00  0.00    +0.000 C 
ATOM      8  C   UNL     1     -65.911 -55.402 -52.540  0.00  0.00    +0.000 C 
ATOM      9  C   UNL     1     -65.698 -56.320 -55.856  0.00  0.00    +0.000 C 
ATOM     10  C   UNL     1     -64.477 -57.008 -55.268  0.00  0.00    +0.000 C 
ATOM     11  C   UNL     1     -63.156 -56.781 -55.752  0.00  0.00    +0.000 C 
ATOM     12  C   UNL     1     -66.045 -55.693 -50.280  0.00  0.00    +0.000 C 
ATOM     13  C   UNL     1     -61.870 -56.456 -56.349  0.00  0.00    +0.000 C 
ATOM     14  C   UNL     1     -65.453 -56.486 -49.178  0.00  0.00    +0.000 C 
ATOM     15  C   UNL     1     -64.191 -57.194 -49.256  0.00  0.00    +0.000 C 
ATOM     16  C   UNL     1     -60.600 -56.809 -55.637  0.00  0.00    +0.000 C 
ATOM     17  C   UNL     1     -62.910 -56.640 -49.677  0.00  0.00    +0.000 C 
ATOM     18  C   UNL     1     -60.835 -57.552 -50.850  0.00  0.00    +0.000 C 
ATOM     19  C   UNL     1     -62.287 -57.178 -50.926  0.00  0.00    +0.000 C 
ATOM     20  C   UNL     1     -60.083 -57.735 -52.094  0.00  0.00    +0.000 C 
ATOM     21  C   UNL     1     -60.594 -57.553 -54.430  0.00  0.00    +0.000 C 
ATOM     22  C   UNL     1     -60.612 -58.248 -53.337  0.00  0.00    +0.000 C 
ATOM     23  C   UNL     1     -59.229 -56.417 -56.146  0.00  0.00    +0.000 C 
ATOM     24  C   UNL     1     -62.582 -55.191 -49.315  0.00  0.00    +0.000 C 
ATOM     25  C   UNL     1     -60.171 -57.838 -49.508  0.00  0.00    +0.000 C 
ATOM     26  C   UNL     1     -61.374 -59.548 -53.401  0.00  0.00    +0.000 C 
ENDROOT
BRANCH   9  27
ATOM     27  O   UNL     1     -65.296 -55.046 -56.363  0.00  0.00    +0.000 OA
ATOM     28  H   UNL     1     -65.800 -54.893 -57.183  0.00  0.00    +0.000 HD
ENDBRANCH   9  27
BRANCH  10  29
ATOM     29  O   UNL     1     -64.668 -57.911 -54.241  0.00  0.00    +0.000 OA
ATOM     30  H   UNL     1     -64.988 -57.506 -53.413  0.00  0.00    +0.000 HD
ENDBRANCH  10  29
BRANCH  14  31
ATOM     31  O   UNL     1     -66.162 -56.617 -47.997  0.00  0.00    +0.000 OA
ATOM     32  H   UNL     1     -65.551 -56.711 -47.236  0.00  0.00    +0.000 HD
ENDBRANCH  14  31
BRANCH  15  33
ATOM     33  O   UNL     1     -64.111 -58.296 -48.421  0.00  0.00    +0.000 OA
ATOM     34  C   UNL     1     -64.474 -59.460 -49.115  0.00  0.00    +0.000 C 
ENDBRANCH  15  33
BRANCH  20  35
ATOM     35  O   UNL     1     -58.664 -57.761 -52.035  0.00  0.00    +0.000 OA
BRANCH  35  37
ATOM     36  O   UNL     1     -58.297 -55.533 -51.449  0.00  0.00    +0.000 OA
ATOM     37  C   UNL     1     -58.080 -56.537 -52.100  0.00  0.00    +0.000 C 
ATOM     38  C   UNL     1     -57.057 -56.396 -53.165  0.00  0.00    +0.000 C 
ENDBRANCH  35  37
ENDBRANCH  20  35
BRANCH   6  39
ATOM     39  C   UNL     1     -66.974 -53.674 -54.018  0.00  0.00    +0.000 C 
BRANCH  39  41
ATOM     40  O   UNL     1     -65.269 -52.552 -52.488  0.00  0.00    +0.000 OA
ATOM     41  C   UNL     1     -66.563 -52.540 -53.141  0.00  0.00    +0.000 C 
ATOM     42  C   UNL     1     -65.399 -51.800 -53.620  0.00  0.00    +0.000 C 
ATOM     43  C   UNL     1     -67.621 -51.971 -52.134  0.00  0.00    +0.000 C 
BRANCH  42  44
ATOM     44  C   UNL     1     -65.305 -50.372 -53.517  0.00  0.00    +0.000 C 
ATOM     45  C   UNL     1     -64.154 -49.742 -52.773  0.00  0.00    +0.000 C 
BRANCH  44  46
ATOM     46  C   UNL     1     -65.912 -49.572 -54.521  0.00  0.00    +0.000 C 
ATOM     47  C   UNL     1     -66.428 -48.981 -55.428  0.00  0.00    +0.000 C 
ATOM     48  C   UNL     1     -67.062 -48.341 -56.672  0.00  0.00    +0.000 C 
ENDBRANCH  44  46
ENDBRANCH  42  44
ENDBRANCH  39  41
BRANCH  39  49
ATOM     49  O   UNL     1     -67.506 -53.457 -55.281  0.00  0.00    +0.000 OA
ATOM     50  H   UNL     1     -67.708 -54.289 -55.750  0.00  0.00    +0.000 HD
ENDBRANCH  39  49
ENDBRANCH   6  39
BRANCH   9  51
ATOM     51  C   UNL     1     -66.223 -57.140 -56.973  0.00  0.00    +0.000 C 
BRANCH  51  52
ATOM     52  O   UNL     1     -66.714 -57.888 -57.961  0.00  0.00    +0.000 OA
ATOM     53  H   UNL     1     -67.589 -58.245 -57.720  0.00  0.00    +0.000 HD
ENDBRANCH  51  52
ENDBRANCH   9  51
TORSDOF 13
ENDMDL
MODEL 3
REMARK VINA RESULT:      -5.2     35.144     39.726
REMARK  Name = 101808841_CandidaspongiolideA.pdbqt.pdb
REMARK  13 active torsions:
REMARK  status: ('A' for Active; 'I' for Inactive)
REMARK    1  A    between atoms: C_6  and  C_39
REMARK    2  A    between atoms: C_9  and  O_27
REMARK    3  A    between atoms: C_9  and  C_51
REMARK    4  A    between atoms: C_10  and  O_29
REMARK    5  A    between atoms: C_14  and  O_31
REMARK    6  A    between atoms: C_15  and  O_33
REMARK    7  A    between atoms: C_20  and  O_35
REMARK    8  A    between atoms: O_35  and  C_37
REMARK    9  A    between atoms: C_39  and  C_41
REMARK   10  A    between atoms: C_39  and  O_49
REMARK   11  A    between atoms: C_42  and  C_44
REMARK   12  A    between atoms: C_44  and  C_46
REMARK   13  A    between atoms: C_51  and  O_52
REMARK                            x       y       z     vdW  Elec       q    Type
REMARK                         _______ _______ _______ _____ _____    ______ ____
ROOT
ATOM      1  O   UNL     1     -44.399 -62.674 -85.698  0.00  0.00    +0.000 OA
ATOM      2  O   UNL     1     -42.419 -59.282 -87.062  0.00  0.00    +0.000 OA
ATOM      3  O   UNL     1     -43.040 -64.128 -86.864  0.00  0.00    +0.000 OA
ATOM      4  O   UNL     1     -48.445 -57.046 -85.583  0.00  0.00    +0.000 OA
ATOM      5  O   UNL     1     -45.891 -61.713 -83.474  0.00  0.00    +0.000 OA
ATOM      6  C   UNL     1     -44.200 -60.718 -87.624  0.00  0.00    +0.000 C 
ATOM      7  C   UNL     1     -43.641 -59.409 -87.160  0.00  0.00    +0.000 C 
ATOM      8  C   UNL     1     -44.316 -61.758 -86.660  0.00  0.00    +0.000 C 
ATOM      9  C   UNL     1     -44.678 -58.331 -86.742  0.00  0.00    +0.000 C 
ATOM     10  C   UNL     1     -45.288 -58.672 -85.393  0.00  0.00    +0.000 C 
ATOM     11  C   UNL     1     -46.622 -58.314 -85.037  0.00  0.00    +0.000 C 
ATOM     12  C   UNL     1     -43.642 -63.785 -85.855  0.00  0.00    +0.000 C 
ATOM     13  C   UNL     1     -47.992 -57.883 -84.810  0.00  0.00    +0.000 C 
ATOM     14  C   UNL     1     -43.566 -64.563 -84.597  0.00  0.00    +0.000 C 
ATOM     15  C   UNL     1     -44.325 -64.271 -83.399  0.00  0.00    +0.000 C 
ATOM     16  C   UNL     1     -48.781 -58.455 -83.671  0.00  0.00    +0.000 C 
ATOM     17  C   UNL     1     -45.768 -64.083 -83.310  0.00  0.00    +0.000 C 
ATOM     18  C   UNL     1     -47.334 -62.705 -81.839  0.00  0.00    +0.000 C 
ATOM     19  C   UNL     1     -46.279 -62.736 -82.907  0.00  0.00    +0.000 C 
ATOM     20  C   UNL     1     -48.123 -61.484 -81.656  0.00  0.00    +0.000 C 
ATOM     21  C   UNL     1     -48.206 -59.339 -82.724  0.00  0.00    +0.000 C 
ATOM     22  C   UNL     1     -47.655 -60.133 -81.862  0.00  0.00    +0.000 C 
ATOM     23  C   UNL     1     -50.240 -58.131 -83.431  0.00  0.00    +0.000 C 
ATOM     24  C   UNL     1     -46.675 -64.919 -84.216  0.00  0.00    +0.000 C 
ATOM     25  C   UNL     1     -47.517 -63.882 -80.888  0.00  0.00    +0.000 C 
ATOM     26  C   UNL     1     -46.392 -59.621 -81.216  0.00  0.00    +0.000 C 
ENDROOT
BRANCH   9  27
ATOM     27  O   UNL     1     -45.726 -58.290 -87.712  0.00  0.00    +0.000 OA
ATOM     28  H   UNL     1     -46.560 -58.468 -87.240  0.00  0.00    +0.000 HD
ENDBRANCH   9  27
BRANCH  10  29
ATOM     29  O   UNL     1     -44.502 -59.330 -84.468  0.00  0.00    +0.000 OA
ATOM     30  H   UNL     1     -44.230 -60.225 -84.747  0.00  0.00    +0.000 HD
ENDBRANCH  10  29
BRANCH  14  31
ATOM     31  O   UNL     1     -42.675 -65.619 -84.521  0.00  0.00    +0.000 OA
ATOM     32  H   UNL     1     -43.149 -66.459 -84.342  0.00  0.00    +0.000 HD
ENDBRANCH  14  31
BRANCH  15  33
ATOM     33  O   UNL     1     -43.712 -64.686 -82.228  0.00  0.00    +0.000 OA
ATOM     34  C   UNL     1     -43.014 -63.621 -81.640  0.00  0.00    +0.000 C 
ENDBRANCH  15  33
BRANCH  20  35
ATOM     35  O   UNL     1     -49.318 -61.554 -80.891  0.00  0.00    +0.000 OA
BRANCH  35  37
ATOM     36  O   UNL     1     -48.448 -61.234 -78.749  0.00  0.00    +0.000 OA
ATOM     37  C   UNL     1     -49.223 -60.997 -79.656  0.00  0.00    +0.000 C 
ATOM     38  C   UNL     1     -50.261 -59.979 -79.356  0.00  0.00    +0.000 C 
ENDBRANCH  35  37
ENDBRANCH  20  35
BRANCH   6  39
ATOM     39  C   UNL     1     -44.504 -60.934 -89.023  0.00  0.00    +0.000 C 
BRANCH  39  41
ATOM     40  O   UNL     1     -43.843 -63.196 -89.997  0.00  0.00    +0.000 OA
ATOM     41  C   UNL     1     -43.626 -61.767 -89.894  0.00  0.00    +0.000 C 
ATOM     42  C   UNL     1     -44.318 -62.411 -91.007  0.00  0.00    +0.000 C 
ATOM     43  C   UNL     1     -42.082 -61.502 -89.846  0.00  0.00    +0.000 C 
BRANCH  42  44
ATOM     44  C   UNL     1     -43.729 -62.526 -92.310  0.00  0.00    +0.000 C 
ATOM     45  C   UNL     1     -43.291 -63.874 -92.825  0.00  0.00    +0.000 C 
BRANCH  44  46
ATOM     46  C   UNL     1     -44.054 -61.557 -93.297  0.00  0.00    +0.000 C 
ATOM     47  C   UNL     1     -44.247 -60.772 -94.183  0.00  0.00    +0.000 C 
ATOM     48  C   UNL     1     -44.363 -59.805 -95.370  0.00  0.00    +0.000 C 
ENDBRANCH  44  46
ENDBRANCH  42  44
ENDBRANCH  39  41
BRANCH  39  49
ATOM     49  O   UNL     1     -45.803 -60.617 -89.395  0.00  0.00    +0.000 OA
ATOM     50  H   UNL     1     -46.235 -61.337 -89.895  0.00  0.00    +0.000 HD
ENDBRANCH  39  49
ENDBRANCH   6  39
BRANCH   9  51
ATOM     51  C   UNL     1     -44.044 -56.994 -86.661  0.00  0.00    +0.000 C 
BRANCH  51  52
ATOM     52  O   UNL     1     -43.493 -55.782 -86.605  0.00  0.00    +0.000 OA
ATOM     53  H   UNL     1     -43.928 -55.176 -87.233  0.00  0.00    +0.000 HD
ENDBRANCH  51  52
ENDBRANCH   9  51
TORSDOF 13
ENDMDL
MODEL 4
REMARK VINA RESULT:      -5.1      1.416      2.111
REMARK  Name = 101808841_CandidaspongiolideA.pdbqt.pdb
REMARK  13 active torsions:
REMARK  status: ('A' for Active; 'I' for Inactive)
REMARK    1  A    between atoms: C_6  and  C_39
REMARK    2  A    between atoms: C_9  and  O_27
REMARK    3  A    between atoms: C_9  and  C_51
REMARK    4  A    between atoms: C_10  and  O_29
REMARK    5  A    between atoms: C_14  and  O_31
REMARK    6  A    between atoms: C_15  and  O_33
REMARK    7  A    between atoms: C_20  and  O_35
REMARK    8  A    between atoms: O_35  and  C_37
REMARK    9  A    between atoms: C_39  and  C_41
REMARK   10  A    between atoms: C_39  and  O_49
REMARK   11  A    between atoms: C_42  and  C_44
REMARK   12  A    between atoms: C_44  and  C_46
REMARK   13  A    between atoms: C_51  and  O_52
REMARK                            x       y       z     vdW  Elec       q    Type
REMARK                         _______ _______ _______ _____ _____    ______ ____
ROOT
ATOM      1  O   UNL     1     -64.087 -46.301 -56.813  0.00  0.00    +0.000 OA
ATOM      2  O   UNL     1     -66.834 -46.222 -53.694  0.00  0.00    +0.000 OA
ATOM      3  O   UNL     1     -65.504 -47.429 -58.241  0.00  0.00    +0.000 OA
ATOM      4  O   UNL     1     -61.018 -45.748 -50.622  0.00  0.00    +0.000 OA
ATOM      5  O   UNL     1     -62.170 -44.342 -56.049  0.00  0.00    +0.000 OA
ATOM      6  C   UNL     1     -65.107 -47.552 -54.584  0.00  0.00    +0.000 C 
ATOM      7  C   UNL     1     -65.687 -46.647 -53.543  0.00  0.00    +0.000 C 
ATOM      8  C   UNL     1     -64.572 -46.945 -55.754  0.00  0.00    +0.000 C 
ATOM      9  C   UNL     1     -64.737 -46.235 -52.386  0.00  0.00    +0.000 C 
ATOM     10  C   UNL     1     -63.723 -45.210 -52.866  0.00  0.00    +0.000 C 
ATOM     11  C   UNL     1     -62.409 -45.113 -52.323  0.00  0.00    +0.000 C 
ATOM     12  C   UNL     1     -64.692 -46.546 -57.998  0.00  0.00    +0.000 C 
ATOM     13  C   UNL     1     -61.107 -45.127 -51.676  0.00  0.00    +0.000 C 
ATOM     14  C   UNL     1     -64.292 -45.551 -59.020  0.00  0.00    +0.000 C 
ATOM     15  C   UNL     1     -63.270 -44.542 -58.833  0.00  0.00    +0.000 C 
ATOM     16  C   UNL     1     -59.950 -44.403 -52.297  0.00  0.00    +0.000 C 
ATOM     17  C   UNL     1     -61.904 -44.765 -58.375  0.00  0.00    +0.000 C 
ATOM     18  C   UNL     1     -60.193 -43.421 -57.039  0.00  0.00    +0.000 C 
ATOM     19  C   UNL     1     -61.494 -44.169 -57.065  0.00  0.00    +0.000 C 
ATOM     20  C   UNL     1     -59.566 -43.132 -55.748  0.00  0.00    +0.000 C 
ATOM     21  C   UNL     1     -60.098 -43.602 -53.457  0.00  0.00    +0.000 C 
ATOM     22  C   UNL     1     -60.260 -42.864 -54.509  0.00  0.00    +0.000 C 
ATOM     23  C   UNL     1     -58.545 -44.453 -51.736  0.00  0.00    +0.000 C 
ATOM     24  C   UNL     1     -61.187 -46.049 -58.799  0.00  0.00    +0.000 C 
ATOM     25  C   UNL     1     -59.580 -42.879 -58.325  0.00  0.00    +0.000 C 
ATOM     26  C   UNL     1     -61.343 -41.819 -54.414  0.00  0.00    +0.000 C 
ENDROOT
BRANCH   9  27
ATOM     27  O   UNL     1     -64.029 -47.389 -51.930  0.00  0.00    +0.000 OA
ATOM     28  H   UNL     1     -64.640 -47.892 -51.361  0.00  0.00    +0.000 HD
ENDBRANCH   9  27
BRANCH  10  29
ATOM     29  O   UNL     1     -64.109 -44.321 -53.849  0.00  0.00    +0.000 OA
ATOM     30  H   UNL     1     -64.368 -44.747 -54.688  0.00  0.00    +0.000 HD
ENDBRANCH  10  29
BRANCH  14  31
ATOM     31  O   UNL     1     -64.965 -45.531 -60.229  0.00  0.00    +0.000 OA
ATOM     32  H   UNL     1     -65.648 -44.828 -60.233  0.00  0.00    +0.000 HD
ENDBRANCH  14  31
BRANCH  15  33
ATOM     33  O   UNL     1     -63.455 -43.403 -59.599  0.00  0.00    +0.000 OA
ATOM     34  C   UNL     1     -62.399 -43.251 -60.510  0.00  0.00    +0.000 C 
ENDBRANCH  15  33
BRANCH  20  35
ATOM     35  O   UNL     1     -58.203 -42.728 -55.727  0.00  0.00    +0.000 OA
BRANCH  35  37
ATOM     36  O   UNL     1     -57.341 -44.827 -55.185  0.00  0.00    +0.000 OA
ATOM     37  C   UNL     1     -57.316 -43.756 -55.759  0.00  0.00    +0.000 C 
ATOM     38  C   UNL     1     -56.109 -43.503 -56.585  0.00  0.00    +0.000 C 
ENDBRANCH  35  37
ENDBRANCH  20  35
BRANCH   6  39
ATOM     39  C   UNL     1     -65.190 -48.991 -54.437  0.00  0.00    +0.000 C 
BRANCH  39  41
ATOM     40  O   UNL     1     -66.526 -51.162 -54.494  0.00  0.00    +0.000 OA
ATOM     41  C   UNL     1     -66.453 -49.732 -54.717  0.00  0.00    +0.000 C 
ATOM     42  C   UNL     1     -67.063 -50.347 -53.541  0.00  0.00    +0.000 C 
ATOM     43  C   UNL     1     -67.222 -49.397 -56.041  0.00  0.00    +0.000 C 
BRANCH  42  44
ATOM     44  C   UNL     1     -68.484 -50.362 -53.337  0.00  0.00    +0.000 C 
ATOM     45  C   UNL     1     -69.218 -49.081 -53.036  0.00  0.00    +0.000 C 
BRANCH  44  46
ATOM     46  C   UNL     1     -69.251 -51.394 -53.942  0.00  0.00    +0.000 C 
ATOM     47  C   UNL     1     -69.839 -52.254 -54.536  0.00  0.00    +0.000 C 
ATOM     48  C   UNL     1     -70.523 -53.311 -55.416  0.00  0.00    +0.000 C 
ENDBRANCH  44  46
ENDBRANCH  42  44
ENDBRANCH  39  41
BRANCH  39  49
ATOM     49  O   UNL     1     -63.968 -49.643 -54.363  0.00  0.00    +0.000 OA
ATOM     50  H   UNL     1     -63.616 -49.880 -55.243  0.00  0.00    +0.000 HD
ENDBRANCH  39  49
ENDBRANCH   6  39
BRANCH   9  51
ATOM     51  C   UNL     1     -65.504 -45.661 -51.255  0.00  0.00    +0.000 C 
BRANCH  51  52
ATOM     52  O   UNL     1     -66.171 -45.139 -50.225  0.00  0.00    +0.000 OA
ATOM     53  H   UNL     1     -67.095 -44.951 -50.473  0.00  0.00    +0.000 HD
ENDBRANCH  51  52
ENDBRANCH   9  51
TORSDOF 13
ENDMDL
MODEL 5
REMARK VINA RESULT:      -5.1      7.883     12.193
REMARK  Name = 101808841_CandidaspongiolideA.pdbqt.pdb
REMARK  13 active torsions:
REMARK  status: ('A' for Active; 'I' for Inactive)
REMARK    1  A    between atoms: C_6  and  C_39
REMARK    2  A    between atoms: C_9  and  O_27
REMARK    3  A    between atoms: C_9  and  C_51
REMARK    4  A    between atoms: C_10  and  O_29
REMARK    5  A    between atoms: C_14  and  O_31
REMARK    6  A    between atoms: C_15  and  O_33
REMARK    7  A    between atoms: C_20  and  O_35
REMARK    8  A    between atoms: O_35  and  C_37
REMARK    9  A    between atoms: C_39  and  C_41
REMARK   10  A    between atoms: C_39  and  O_49
REMARK   11  A    between atoms: C_42  and  C_44
REMARK   12  A    between atoms: C_44  and  C_46
REMARK   13  A    between atoms: C_51  and  O_52
REMARK                            x       y       z     vdW  Elec       q    Type
REMARK                         _______ _______ _______ _____ _____    ______ ____
ROOT
ATOM      1  O   UNL     1     -65.813 -55.428 -51.509  0.00  0.00    +0.000 OA
ATOM      2  O   UNL     1     -68.131 -56.548 -54.773  0.00  0.00    +0.000 OA
ATOM      3  O   UNL     1     -67.589 -54.498 -50.368  0.00  0.00    +0.000 OA
ATOM      4  O   UNL     1     -62.068 -56.011 -57.313  0.00  0.00    +0.000 OA
ATOM      5  O   UNL     1     -63.436 -56.956 -51.836  0.00  0.00    +0.000 OA
ATOM      6  C   UNL     1     -66.849 -54.745 -53.965  0.00  0.00    +0.000 C 
ATOM      7  C   UNL     1     -67.099 -55.886 -54.901  0.00  0.00    +0.000 C 
ATOM      8  C   UNL     1     -66.317 -55.055 -52.683  0.00  0.00    +0.000 C 
ATOM      9  C   UNL     1     -65.966 -56.203 -55.914  0.00  0.00    +0.000 C 
ATOM     10  C   UNL     1     -64.803 -56.888 -55.217  0.00  0.00    +0.000 C 
ATOM     11  C   UNL     1     -63.451 -56.738 -55.643  0.00  0.00    +0.000 C 
ATOM     12  C   UNL     1     -66.579 -55.187 -50.419  0.00  0.00    +0.000 C 
ATOM     13  C   UNL     1     -62.125 -56.497 -56.189  0.00  0.00    +0.000 C 
ATOM     14  C   UNL     1     -66.074 -55.922 -49.237  0.00  0.00    +0.000 C 
ATOM     15  C   UNL     1     -64.837 -56.675 -49.199  0.00  0.00    +0.000 C 
ATOM     16  C   UNL     1     -60.907 -56.842 -55.386  0.00  0.00    +0.000 C 
ATOM     17  C   UNL     1     -63.516 -56.193 -49.585  0.00  0.00    +0.000 C 
ATOM     18  C   UNL     1     -61.417 -57.249 -50.581  0.00  0.00    +0.000 C 
ATOM     19  C   UNL     1     -62.848 -56.835 -50.760  0.00  0.00    +0.000 C 
ATOM     20  C   UNL     1     -60.609 -57.542 -51.768  0.00  0.00    +0.000 C 
ATOM     21  C   UNL     1     -60.991 -57.503 -54.135  0.00  0.00    +0.000 C 
ATOM     22  C   UNL     1     -61.091 -58.120 -53.001  0.00  0.00    +0.000 C 
ATOM     23  C   UNL     1     -59.498 -56.530 -55.845  0.00  0.00    +0.000 C 
ATOM     24  C   UNL     1     -63.155 -54.734 -49.303  0.00  0.00    +0.000 C 
ATOM     25  C   UNL     1     -60.835 -57.465 -49.189  0.00  0.00    +0.000 C 
ATOM     26  C   UNL     1     -61.896 -59.396 -53.020  0.00  0.00    +0.000 C 
ENDROOT
BRANCH   9  27
ATOM     27  O   UNL     1     -65.492 -54.980 -56.482  0.00  0.00    +0.000 OA
ATOM     28  H   UNL     1     -66.235 -54.587 -56.975  0.00  0.00    +0.000 HD
ENDBRANCH   9  27
BRANCH  10  29
ATOM     29  O   UNL     1     -65.079 -57.713 -54.144  0.00  0.00    +0.000 OA
ATOM     30  H   UNL     1     -65.898 -57.481 -53.667  0.00  0.00    +0.000 HD
ENDBRANCH  10  29
BRANCH  14  31
ATOM     31  O   UNL     1     -66.848 -55.949 -48.090  0.00  0.00    +0.000 OA
ATOM     32  H   UNL     1     -67.801 -55.984 -48.317  0.00  0.00    +0.000 HD
ENDBRANCH  14  31
BRANCH  15  33
ATOM     33  O   UNL     1     -64.840 -57.720 -48.290  0.00  0.00    +0.000 OA
ATOM     34  C   UNL     1     -63.956 -57.450 -47.234  0.00  0.00    +0.000 C 
ENDBRANCH  15  33
BRANCH  20  35
ATOM     35  O   UNL     1     -59.196 -57.610 -51.630  0.00  0.00    +0.000 OA
BRANCH  35  37
ATOM     36  O   UNL     1     -58.765 -55.378 -51.106  0.00  0.00    +0.000 OA
ATOM     37  C   UNL     1     -58.568 -56.409 -51.719  0.00  0.00    +0.000 C 
ATOM     38  C   UNL     1     -57.516 -56.339 -52.763  0.00  0.00    +0.000 C 
ENDBRANCH  35  37
ENDBRANCH  20  35
BRANCH   6  39
ATOM     39  C   UNL     1     -67.239 -53.398 -54.327  0.00  0.00    +0.000 C 
BRANCH  39  41
ATOM     40  O   UNL     1     -67.100 -50.873 -53.997  0.00  0.00    +0.000 OA
ATOM     41  C   UNL     1     -66.669 -52.208 -53.633  0.00  0.00    +0.000 C 
ATOM     42  C   UNL     1     -67.644 -51.428 -52.876  0.00  0.00    +0.000 C 
ATOM     43  C   UNL     1     -65.122 -52.177 -53.380  0.00  0.00    +0.000 C 
BRANCH  42  44
ATOM     44  C   UNL     1     -67.336 -50.852 -51.598  0.00  0.00    +0.000 C 
ATOM     45  C   UNL     1     -66.615 -49.530 -51.519  0.00  0.00    +0.000 C 
BRANCH  44  46
ATOM     46  C   UNL     1     -68.149 -51.187 -50.482  0.00  0.00    +0.000 C 
ATOM     47  C   UNL     1     -68.773 -51.411 -49.482  0.00  0.00    +0.000 C 
ATOM     48  C   UNL     1     -69.460 -51.639 -48.128  0.00  0.00    +0.000 C 
ENDBRANCH  44  46
ENDBRANCH  42  44
ENDBRANCH  39  41
BRANCH  39  49
ATOM     49  O   UNL     1     -67.884 -53.283 -55.550  0.00  0.00    +0.000 OA
ATOM     50  H   UNL     1     -68.836 -53.086 -55.454  0.00  0.00    +0.000 HD
ENDBRANCH  39  49
ENDBRANCH   6  39
BRANCH   9  51
ATOM     51  C   UNL     1     -66.461 -57.079 -57.001  0.00  0.00    +0.000 C 
BRANCH  51  52
ATOM     52  O   UNL     1     -66.915 -57.886 -57.961  0.00  0.00    +0.000 OA
ATOM     53  H   UNL     1     -67.889 -57.932 -57.939  0.00  0.00    +0.000 HD
ENDBRANCH  51  52
ENDBRANCH   9  51
TORSDOF 13
ENDMDL
MODEL 6
REMARK VINA RESULT:      -5.1     26.811     31.547
REMARK  Name = 101808841_CandidaspongiolideA.pdbqt.pdb
REMARK  13 active torsions:
REMARK  status: ('A' for Active; 'I' for Inactive)
REMARK    1  A    between atoms: C_6  and  C_39
REMARK    2  A    between atoms: C_9  and  O_27
REMARK    3  A    between atoms: C_9  and  C_51
REMARK    4  A    between atoms: C_10  and  O_29
REMARK    5  A    between atoms: C_14  and  O_31
REMARK    6  A    between atoms: C_15  and  O_33
REMARK    7  A    between atoms: C_20  and  O_35
REMARK    8  A    between atoms: O_35  and  C_37
REMARK    9  A    between atoms: C_39  and  C_41
REMARK   10  A    between atoms: C_39  and  O_49
REMARK   11  A    between atoms: C_42  and  C_44
REMARK   12  A    between atoms: C_44  and  C_46
REMARK   13  A    between atoms: C_51  and  O_52
REMARK                            x       y       z     vdW  Elec       q    Type
REMARK                         _______ _______ _______ _____ _____    ______ ____
ROOT
ATOM      1  O   UNL     1     -61.619 -59.841 -84.084  0.00  0.00    +0.000 OA
ATOM      2  O   UNL     1     -57.649 -58.795 -83.429  0.00  0.00    +0.000 OA
ATOM      3  O   UNL     1     -61.135 -61.147 -85.923  0.00  0.00    +0.000 OA
ATOM      4  O   UNL     1     -61.013 -53.834 -80.678  0.00  0.00    +0.000 OA
ATOM      5  O   UNL     1     -62.891 -59.156 -81.634  0.00  0.00    +0.000 OA
ATOM      6  C   UNL     1     -59.561 -58.090 -84.608  0.00  0.00    +0.000 C 
ATOM      7  C   UNL     1     -58.540 -57.949 -83.523  0.00  0.00    +0.000 C 
ATOM      8  C   UNL     1     -60.640 -58.989 -84.379  0.00  0.00    +0.000 C 
ATOM      9  C   UNL     1     -58.753 -56.775 -82.530  0.00  0.00    +0.000 C 
ATOM     10  C   UNL     1     -59.888 -57.088 -81.569  0.00  0.00    +0.000 C 
ATOM     11  C   UNL     1     -60.728 -56.079 -81.012  0.00  0.00    +0.000 C 
ATOM     12  C   UNL     1     -61.717 -60.942 -84.866  0.00  0.00    +0.000 C 
ATOM     13  C   UNL     1     -61.499 -54.949 -80.520  0.00  0.00    +0.000 C 
ATOM     14  C   UNL     1     -62.611 -61.954 -84.257  0.00  0.00    +0.000 C 
ATOM     15  C   UNL     1     -63.404 -61.742 -83.063  0.00  0.00    +0.000 C 
ATOM     16  C   UNL     1     -62.823 -55.175 -79.855  0.00  0.00    +0.000 C 
ATOM     17  C   UNL     1     -64.325 -60.639 -82.818  0.00  0.00    +0.000 C 
ATOM     18  C   UNL     1     -65.112 -59.354 -80.758  0.00  0.00    +0.000 C 
ATOM     19  C   UNL     1     -64.001 -59.685 -81.712  0.00  0.00    +0.000 C 
ATOM     20  C   UNL     1     -64.978 -58.180 -79.892  0.00  0.00    +0.000 C 
ATOM     21  C   UNL     1     -63.319 -56.476 -79.585  0.00  0.00    +0.000 C 
ATOM     22  C   UNL     1     -63.744 -57.673 -79.335  0.00  0.00    +0.000 C 
ATOM     23  C   UNL     1     -63.728 -54.047 -79.407  0.00  0.00    +0.000 C 
ATOM     24  C   UNL     1     -65.133 -60.082 -83.991  0.00  0.00    +0.000 C 
ATOM     25  C   UNL     1     -66.316 -60.277 -80.612  0.00  0.00    +0.000 C 
ATOM     26  C   UNL     1     -62.791 -58.560 -78.574  0.00  0.00    +0.000 C 
ENDROOT
BRANCH   9  27
ATOM     27  O   UNL     1     -59.097 -55.599 -83.264  0.00  0.00    +0.000 OA
ATOM     28  H   UNL     1     -60.024 -55.699 -83.547  0.00  0.00    +0.000 HD
ENDBRANCH   9  27
BRANCH  10  29
ATOM     29  O   UNL     1     -60.090 -58.403 -81.203  0.00  0.00    +0.000 OA
ATOM     30  H   UNL     1     -60.906 -58.550 -80.687  0.00  0.00    +0.000 HD
ENDBRANCH  10  29
BRANCH  14  31
ATOM     31  O   UNL     1     -62.669 -63.216 -84.821  0.00  0.00    +0.000 OA
ATOM     32  H   UNL     1     -62.798 -63.155 -85.791  0.00  0.00    +0.000 HD
ENDBRANCH  14  31
BRANCH  15  33
ATOM     33  O   UNL     1     -63.668 -62.899 -82.350  0.00  0.00    +0.000 OA
ATOM     34  C   UNL     1     -62.830 -62.981 -81.227  0.00  0.00    +0.000 C 
ENDBRANCH  15  33
BRANCH  20  35
ATOM     35  O   UNL     1     -66.136 -57.679 -79.239  0.00  0.00    +0.000 OA
BRANCH  35  37
ATOM     36  O   UNL     1     -67.138 -56.663 -81.085  0.00  0.00    +0.000 OA
ATOM     37  C   UNL     1     -66.782 -56.700 -79.922  0.00  0.00    +0.000 C 
ATOM     38  C   UNL     1     -67.045 -55.469 -79.137  0.00  0.00    +0.000 C 
ENDBRANCH  35  37
ENDBRANCH  20  35
BRANCH   6  39
ATOM     39  C   UNL     1     -59.386 -57.413 -85.877  0.00  0.00    +0.000 C 
BRANCH  39  41
ATOM     40  O   UNL     1     -60.820 -56.837 -87.905  0.00  0.00    +0.000 OA
ATOM     41  C   UNL     1     -60.493 -56.638 -86.507  0.00  0.00    +0.000 C 
ATOM     42  C   UNL     1     -61.607 -57.456 -86.978  0.00  0.00    +0.000 C 
ATOM     43  C   UNL     1     -60.591 -55.107 -86.188  0.00  0.00    +0.000 C 
BRANCH  42  44
ATOM     44  C   UNL     1     -62.974 -57.039 -86.841  0.00  0.00    +0.000 C 
ATOM     45  C   UNL     1     -63.965 -57.323 -87.941  0.00  0.00    +0.000 C 
BRANCH  44  46
ATOM     46  C   UNL     1     -63.515 -56.889 -85.536  0.00  0.00    +0.000 C 
ATOM     47  C   UNL     1     -63.959 -56.659 -84.446  0.00  0.00    +0.000 C 
ATOM     48  C   UNL     1     -64.475 -56.231 -83.064  0.00  0.00    +0.000 C 
ENDBRANCH  44  46
ENDBRANCH  42  44
ENDBRANCH  39  41
BRANCH  39  49
ATOM     49  O   UNL     1     -58.067 -57.246 -86.274  0.00  0.00    +0.000 OA
ATOM     50  H   UNL     1     -57.637 -58.091 -86.506  0.00  0.00    +0.000 HD
ENDBRANCH  39  49
ENDBRANCH   6  39
BRANCH   9  51
ATOM     51  C   UNL     1     -57.520 -56.514 -81.751  0.00  0.00    +0.000 C 
BRANCH  51  52
ATOM     52  O   UNL     1     -56.400 -56.267 -81.072  0.00  0.00    +0.000 OA
ATOM     53  H   UNL     1     -55.769 -55.763 -81.619  0.00  0.00    +0.000 HD
ENDBRANCH  51  52
ENDBRANCH   9  51
TORSDOF 13
ENDMDL
MODEL 7
REMARK VINA RESULT:      -5.1     30.174     34.601
REMARK  Name = 101808841_CandidaspongiolideA.pdbqt.pdb
REMARK  13 active torsions:
REMARK  status: ('A' for Active; 'I' for Inactive)
REMARK    1  A    between atoms: C_6  and  C_39
REMARK    2  A    between atoms: C_9  and  O_27
REMARK    3  A    between atoms: C_9  and  C_51
REMARK    4  A    between atoms: C_10  and  O_29
REMARK    5  A    between atoms: C_14  and  O_31
REMARK    6  A    between atoms: C_15  and  O_33
REMARK    7  A    between atoms: C_20  and  O_35
REMARK    8  A    between atoms: O_35  and  C_37
REMARK    9  A    between atoms: C_39  and  C_41
REMARK   10  A    between atoms: C_39  and  O_49
REMARK   11  A    between atoms: C_42  and  C_44
REMARK   12  A    between atoms: C_44  and  C_46
REMARK   13  A    between atoms: C_51  and  O_52
REMARK                            x       y       z     vdW  Elec       q    Type
REMARK                         _______ _______ _______ _____ _____    ______ ____
ROOT
ATOM      1  O   UNL     1     -66.365 -48.425 -20.638  0.00  0.00    +0.000 OA
ATOM      2  O   UNL     1     -67.046 -50.490 -17.095  0.00  0.00    +0.000 OA
ATOM      3  O   UNL     1     -68.312 -47.198 -20.481  0.00  0.00    +0.000 OA
ATOM      4  O   UNL     1     -63.115 -54.546 -20.499  0.00  0.00    +0.000 OA
ATOM      5  O   UNL     1     -63.602 -48.880 -21.142  0.00  0.00    +0.000 OA
ATOM      6  C   UNL     1     -67.480 -50.619 -19.406  0.00  0.00    +0.000 C 
ATOM      7  C   UNL     1     -66.799 -51.072 -18.153  0.00  0.00    +0.000 C 
ATOM      8  C   UNL     1     -66.937 -49.485 -20.073  0.00  0.00    +0.000 C 
ATOM      9  C   UNL     1     -65.743 -52.200 -18.316  0.00  0.00    +0.000 C 
ATOM     10  C   UNL     1     -64.470 -51.653 -18.938  0.00  0.00    +0.000 C 
ATOM     11  C   UNL     1     -63.620 -52.437 -19.772  0.00  0.00    +0.000 C 
ATOM     12  C   UNL     1     -67.114 -47.299 -20.705  0.00  0.00    +0.000 C 
ATOM     13  C   UNL     1     -62.849 -53.353 -20.597  0.00  0.00    +0.000 C 
ATOM     14  C   UNL     1     -66.281 -46.123 -21.046  0.00  0.00    +0.000 C 
ATOM     15  C   UNL     1     -64.882 -46.181 -21.417  0.00  0.00    +0.000 C 
ATOM     16  C   UNL     1     -61.786 -52.826 -21.513  0.00  0.00    +0.000 C 
ATOM     17  C   UNL     1     -64.293 -47.020 -22.454  0.00  0.00    +0.000 C 
ATOM     18  C   UNL     1     -62.036 -48.159 -22.805  0.00  0.00    +0.000 C 
ATOM     19  C   UNL     1     -63.323 -48.079 -22.036  0.00  0.00    +0.000 C 
ATOM     20  C   UNL     1     -61.218 -49.369 -22.696  0.00  0.00    +0.000 C 
ATOM     21  C   UNL     1     -61.419 -51.457 -21.534  0.00  0.00    +0.000 C 
ATOM     22  C   UNL     1     -61.090 -50.204 -21.524  0.00  0.00    +0.000 C 
ATOM     23  C   UNL     1     -61.011 -53.704 -22.473  0.00  0.00    +0.000 C 
ATOM     24  C   UNL     1     -65.100 -47.291 -23.725  0.00  0.00    +0.000 C 
ATOM     25  C   UNL     1     -61.531 -46.966 -23.607  0.00  0.00    +0.000 C 
ATOM     26  C   UNL     1     -60.734 -49.632 -20.175  0.00  0.00    +0.000 C 
ENDROOT
BRANCH   9  27
ATOM     27  O   UNL     1     -66.268 -53.210 -19.179  0.00  0.00    +0.000 OA
ATOM     28  H   UNL     1     -67.013 -53.628 -18.710  0.00  0.00    +0.000 HD
ENDBRANCH   9  27
BRANCH  10  29
ATOM     29  O   UNL     1     -64.112 -50.349 -18.656  0.00  0.00    +0.000 OA
ATOM     30  H   UNL     1     -63.944 -50.181 -17.710  0.00  0.00    +0.000 HD
ENDBRANCH  10  29
BRANCH  14  31
ATOM     31  O   UNL     1     -66.845 -44.862 -20.962  0.00  0.00    +0.000 OA
ATOM     32  H   UNL     1     -67.058 -44.640 -20.031  0.00  0.00    +0.000 HD
ENDBRANCH  14  31
BRANCH  15  33
ATOM     33  O   UNL     1     -64.170 -45.032 -21.115  0.00  0.00    +0.000 OA
ATOM     34  C   UNL     1     -63.785 -44.374 -22.293  0.00  0.00    +0.000 C 
ENDBRANCH  15  33
BRANCH  20  35
ATOM     35  O   UNL     1     -60.192 -49.587 -23.655  0.00  0.00    +0.000 OA
BRANCH  35  37
ATOM     36  O   UNL     1     -61.668 -50.784 -25.008  0.00  0.00    +0.000 OA
ATOM     37  C   UNL     1     -60.585 -50.298 -24.743  0.00  0.00    +0.000 C 
ATOM     38  C   UNL     1     -59.509 -50.562 -25.730  0.00  0.00    +0.000 C 
ENDBRANCH  35  37
ENDBRANCH  20  35
BRANCH   6  39
ATOM     39  C   UNL     1     -68.703 -51.255 -19.851  0.00  0.00    +0.000 C 
BRANCH  39  41
ATOM     40  O   UNL     1     -70.505 -49.846 -20.977  0.00  0.00    +0.000 OA
ATOM     41  C   UNL     1     -70.013 -50.545 -19.807  0.00  0.00    +0.000 C 
ATOM     42  C   UNL     1     -71.020 -51.083 -20.717  0.00  0.00    +0.000 C 
ATOM     43  C   UNL     1     -70.336 -49.680 -18.540  0.00  0.00    +0.000 C 
BRANCH  42  44
ATOM     44  C   UNL     1     -72.403 -51.194 -20.349  0.00  0.00    +0.000 C 
ATOM     45  C   UNL     1     -73.422 -50.261 -20.950  0.00  0.00    +0.000 C 
BRANCH  44  46
ATOM     46  C   UNL     1     -72.893 -52.450 -19.902  0.00  0.00    +0.000 C 
ATOM     47  C   UNL     1     -73.218 -53.552 -19.558  0.00  0.00    +0.000 C 
ATOM     48  C   UNL     1     -73.521 -55.013 -19.194  0.00  0.00    +0.000 C 
ENDBRANCH  44  46
ENDBRANCH  42  44
ENDBRANCH  39  41
BRANCH  39  49
ATOM     49  O   UNL     1     -68.524 -52.397 -20.618  0.00  0.00    +0.000 OA
ATOM     50  H   UNL     1     -67.593 -52.525 -20.887  0.00  0.00    +0.000 HD
ENDBRANCH  39  49
ENDBRANCH   6  39
BRANCH   9  51
ATOM     51  C   UNL     1     -65.417 -52.808 -17.004  0.00  0.00    +0.000 C 
BRANCH  51  52
ATOM     52  O   UNL     1     -65.133 -53.333 -15.812  0.00  0.00    +0.000 OA
ATOM     53  H   UNL     1     -64.168 -53.385 -15.680  0.00  0.00    +0.000 HD
ENDBRANCH  51  52
ENDBRANCH   9  51
TORSDOF 13
ENDMDL
MODEL 8
REMARK VINA RESULT:      -5.0     27.540     32.391
REMARK  Name = 101808841_CandidaspongiolideA.pdbqt.pdb
REMARK  13 active torsions:
REMARK  status: ('A' for Active; 'I' for Inactive)
REMARK    1  A    between atoms: C_6  and  C_39
REMARK    2  A    between atoms: C_9  and  O_27
REMARK    3  A    between atoms: C_9  and  C_51
REMARK    4  A    between atoms: C_10  and  O_29
REMARK    5  A    between atoms: C_14  and  O_31
REMARK    6  A    between atoms: C_15  and  O_33
REMARK    7  A    between atoms: C_20  and  O_35
REMARK    8  A    between atoms: O_35  and  C_37
REMARK    9  A    between atoms: C_39  and  C_41
REMARK   10  A    between atoms: C_39  and  O_49
REMARK   11  A    between atoms: C_42  and  C_44
REMARK   12  A    between atoms: C_44  and  C_46
REMARK   13  A    between atoms: C_51  and  O_52
REMARK                            x       y       z     vdW  Elec       q    Type
REMARK                         _______ _______ _______ _____ _____    ______ ____
ROOT
ATOM      1  O   UNL     1     -61.529 -59.769 -84.158  0.00  0.00    +0.000 OA
ATOM      2  O   UNL     1     -57.570 -58.740 -83.419  0.00  0.00    +0.000 OA
ATOM      3  O   UNL     1     -61.015 -61.059 -85.999  0.00  0.00    +0.000 OA
ATOM      4  O   UNL     1     -60.972 -53.795 -80.686  0.00  0.00    +0.000 OA
ATOM      5  O   UNL     1     -62.846 -59.102 -81.725  0.00  0.00    +0.000 OA
ATOM      6  C   UNL     1     -59.458 -58.019 -84.627  0.00  0.00    +0.000 C 
ATOM      7  C   UNL     1     -58.457 -57.891 -83.522  0.00  0.00    +0.000 C 
ATOM      8  C   UNL     1     -60.544 -58.917 -84.426  0.00  0.00    +0.000 C 
ATOM      9  C   UNL     1     -58.686 -56.725 -82.522  0.00  0.00    +0.000 C 
ATOM     10  C   UNL     1     -59.839 -57.043 -81.586  0.00  0.00    +0.000 C 
ATOM     11  C   UNL     1     -60.686 -56.037 -81.035  0.00  0.00    +0.000 C 
ATOM     12  C   UNL     1     -61.616 -60.862 -84.952  0.00  0.00    +0.000 C 
ATOM     13  C   UNL     1     -61.464 -54.910 -80.548  0.00  0.00    +0.000 C 
ATOM     14  C   UNL     1     -62.523 -61.877 -84.368  0.00  0.00    +0.000 C 
ATOM     15  C   UNL     1     -63.338 -61.675 -83.188  0.00  0.00    +0.000 C 
ATOM     16  C   UNL     1     -62.801 -55.139 -79.909  0.00  0.00    +0.000 C 
ATOM     17  C   UNL     1     -64.261 -60.571 -82.949  0.00  0.00    +0.000 C 
ATOM     18  C   UNL     1     -65.083 -59.303 -80.892  0.00  0.00    +0.000 C 
ATOM     19  C   UNL     1     -63.956 -59.628 -81.829  0.00  0.00    +0.000 C 
ATOM     20  C   UNL     1     -64.962 -58.138 -80.013  0.00  0.00    +0.000 C 
ATOM     21  C   UNL     1     -63.305 -56.440 -79.661  0.00  0.00    +0.000 C 
ATOM     22  C   UNL     1     -63.738 -57.639 -79.429  0.00  0.00    +0.000 C 
ATOM     23  C   UNL     1     -63.711 -54.012 -79.467  0.00  0.00    +0.000 C 
ATOM     24  C   UNL     1     -65.045 -60.001 -84.133  0.00  0.00    +0.000 C 
ATOM     25  C   UNL     1     -66.292 -60.224 -80.778  0.00  0.00    +0.000 C 
ATOM     26  C   UNL     1     -62.801 -58.535 -78.659  0.00  0.00    +0.000 C 
ENDROOT
BRANCH   9  27
ATOM     27  O   UNL     1     -59.013 -55.541 -83.252  0.00  0.00    +0.000 OA
ATOM     28  H   UNL     1     -58.176 -55.075 -83.430  0.00  0.00    +0.000 HD
ENDBRANCH   9  27
BRANCH  10  29
ATOM     29  O   UNL     1     -60.051 -58.362 -81.236  0.00  0.00    +0.000 OA
ATOM     30  H   UNL     1     -59.371 -58.727 -80.639  0.00  0.00    +0.000 HD
ENDBRANCH  10  29
BRANCH  14  31
ATOM     31  O   UNL     1     -62.574 -63.134 -84.945  0.00  0.00    +0.000 OA
ATOM     32  H   UNL     1     -61.670 -63.496 -85.064  0.00  0.00    +0.000 HD
ENDBRANCH  14  31
BRANCH  15  33
ATOM     33  O   UNL     1     -63.618 -62.838 -82.490  0.00  0.00    +0.000 OA
ATOM     34  C   UNL     1     -62.887 -62.875 -81.293  0.00  0.00    +0.000 C 
ENDBRANCH  15  33
BRANCH  20  35
ATOM     35  O   UNL     1     -66.131 -57.639 -79.377  0.00  0.00    +0.000 OA
BRANCH  35  37
ATOM     36  O   UNL     1     -66.848 -56.341 -81.179  0.00  0.00    +0.000 OA
ATOM     37  C   UNL     1     -66.687 -56.565 -79.995  0.00  0.00    +0.000 C 
ATOM     38  C   UNL     1     -67.115 -55.480 -79.078  0.00  0.00    +0.000 C 
ENDBRANCH  35  37
ENDBRANCH  20  35
BRANCH   6  39
ATOM     39  C   UNL     1     -59.258 -57.330 -85.886  0.00  0.00    +0.000 C 
BRANCH  39  41
ATOM     40  O   UNL     1     -57.749 -59.174 -86.796  0.00  0.00    +0.000 OA
ATOM     41  C   UNL     1     -58.304 -57.840 -86.912  0.00  0.00    +0.000 C 
ATOM     42  C   UNL     1     -58.787 -58.996 -87.662  0.00  0.00    +0.000 C 
ATOM     43  C   UNL     1     -57.172 -56.874 -87.406  0.00  0.00    +0.000 C 
BRANCH  42  44
ATOM     44  C   UNL     1     -58.549 -59.148 -89.069  0.00  0.00    +0.000 C 
ATOM     45  C   UNL     1     -57.500 -60.114 -89.558  0.00  0.00    +0.000 C 
BRANCH  44  46
ATOM     46  C   UNL     1     -59.604 -58.860 -89.977  0.00  0.00    +0.000 C 
ATOM     47  C   UNL     1     -60.438 -58.666 -90.816  0.00  0.00    +0.000 C 
ATOM     48  C   UNL     1     -61.408 -58.460 -91.988  0.00  0.00    +0.000 C 
ENDBRANCH  44  46
ENDBRANCH  42  44
ENDBRANCH  39  41
BRANCH  39  49
ATOM     49  O   UNL     1     -60.234 -56.398 -86.205  0.00  0.00    +0.000 OA
ATOM     50  H   UNL     1     -60.226 -56.156 -87.151  0.00  0.00    +0.000 HD
ENDBRANCH  39  49
ENDBRANCH   6  39
BRANCH   9  51
ATOM     51  C   UNL     1     -57.467 -56.475 -81.718  0.00  0.00    +0.000 C 
BRANCH  51  52
ATOM     52  O   UNL     1     -56.385 -56.238 -80.976  0.00  0.00    +0.000 OA
ATOM     53  H   UNL     1     -56.347 -55.299 -80.713  0.00  0.00    +0.000 HD
ENDBRANCH  51  52
ENDBRANCH   9  51
TORSDOF 13
ENDMDL
MODEL 9
REMARK VINA RESULT:      -4.9      6.528     12.032
REMARK  Name = 101808841_CandidaspongiolideA.pdbqt.pdb
REMARK  13 active torsions:
REMARK  status: ('A' for Active; 'I' for Inactive)
REMARK    1  A    between atoms: C_6  and  C_39
REMARK    2  A    between atoms: C_9  and  O_27
REMARK    3  A    between atoms: C_9  and  C_51
REMARK    4  A    between atoms: C_10  and  O_29
REMARK    5  A    between atoms: C_14  and  O_31
REMARK    6  A    between atoms: C_15  and  O_33
REMARK    7  A    between atoms: C_20  and  O_35
REMARK    8  A    between atoms: O_35  and  C_37
REMARK    9  A    between atoms: C_39  and  C_41
REMARK   10  A    between atoms: C_39  and  O_49
REMARK   11  A    between atoms: C_42  and  C_44
REMARK   12  A    between atoms: C_44  and  C_46
REMARK   13  A    between atoms: C_51  and  O_52
REMARK                            x       y       z     vdW  Elec       q    Type
REMARK                         _______ _______ _______ _____ _____    ______ ____
ROOT
ATOM      1  O   UNL     1     -56.003 -46.023 -46.807  0.00  0.00    +0.000 OA
ATOM      2  O   UNL     1     -52.889 -45.297 -49.463  0.00  0.00    +0.000 OA
ATOM      3  O   UNL     1     -54.659 -47.117 -45.285  0.00  0.00    +0.000 OA
ATOM      4  O   UNL     1     -58.241 -45.201 -53.316  0.00  0.00    +0.000 OA
ATOM      5  O   UNL     1     -58.039 -44.237 -47.678  0.00  0.00    +0.000 OA
ATOM      6  C   UNL     1     -54.531 -46.907 -48.957  0.00  0.00    +0.000 C 
ATOM      7  C   UNL     1     -53.938 -45.837 -49.819  0.00  0.00    +0.000 C 
ATOM      8  C   UNL     1     -55.297 -46.493 -47.832  0.00  0.00    +0.000 C 
ATOM      9  C   UNL     1     -54.767 -45.423 -51.066  0.00  0.00    +0.000 C 
ATOM     10  C   UNL     1     -55.963 -44.581 -50.656  0.00  0.00    +0.000 C 
ATOM     11  C   UNL     1     -57.193 -44.585 -51.378  0.00  0.00    +0.000 C 
ATOM     12  C   UNL     1     -55.539 -46.316 -45.569  0.00  0.00    +0.000 C 
ATOM     13  C   UNL     1     -58.380 -44.686 -52.211  0.00  0.00    +0.000 C 
ATOM     14  C   UNL     1     -56.203 -45.486 -44.538  0.00  0.00    +0.000 C 
ATOM     15  C   UNL     1     -57.315 -44.591 -44.788  0.00  0.00    +0.000 C 
ATOM     16  C   UNL     1     -59.696 -44.172 -51.710  0.00  0.00    +0.000 C 
ATOM     17  C   UNL     1     -58.563 -44.926 -45.462  0.00  0.00    +0.000 C 
ATOM     18  C   UNL     1     -60.237 -43.664 -46.918  0.00  0.00    +0.000 C 
ATOM     19  C   UNL     1     -58.865 -44.251 -46.763  0.00  0.00    +0.000 C 
ATOM     20  C   UNL     1     -60.715 -43.319 -48.259  0.00  0.00    +0.000 C 
ATOM     21  C   UNL     1     -59.816 -43.484 -50.477  0.00  0.00    +0.000 C 
ATOM     22  C   UNL     1     -59.899 -42.844 -49.354  0.00  0.00    +0.000 C 
ATOM     23  C   UNL     1     -60.992 -44.331 -52.476  0.00  0.00    +0.000 C 
ATOM     24  C   UNL     1     -59.155 -46.322 -45.261  0.00  0.00    +0.000 C 
ATOM     25  C   UNL     1     -61.087 -43.334 -45.697  0.00  0.00    +0.000 C 
ATOM     26  C   UNL     1     -58.961 -41.674 -49.197  0.00  0.00    +0.000 C 
ENDROOT
BRANCH   9  27
ATOM     27  O   UNL     1     -55.247 -46.599 -51.718  0.00  0.00    +0.000 OA
ATOM     28  H   UNL     1     -54.498 -46.976 -52.217  0.00  0.00    +0.000 HD
ENDBRANCH   9  27
BRANCH  10  29
ATOM     29  O   UNL     1     -55.837 -43.759 -49.554  0.00  0.00    +0.000 OA
ATOM     30  H   UNL     1     -55.272 -44.127 -48.849  0.00  0.00    +0.000 HD
ENDBRANCH  10  29
BRANCH  14  31
ATOM     31  O   UNL     1     -55.711 -45.511 -43.245  0.00  0.00    +0.000 OA
ATOM     32  H   UNL     1     -54.735 -45.607 -43.248  0.00  0.00    +0.000 HD
ENDBRANCH  14  31
BRANCH  15  33
ATOM     33  O   UNL     1     -57.388 -43.524 -43.909  0.00  0.00    +0.000 OA
ATOM     34  C   UNL     1     -56.741 -42.402 -44.449  0.00  0.00    +0.000 C 
ENDBRANCH  15  33
BRANCH  20  35
ATOM     35  O   UNL     1     -62.102 -43.079 -48.449  0.00  0.00    +0.000 OA
BRANCH  35  37
ATOM     36  O   UNL     1     -62.692 -45.327 -48.660  0.00  0.00    +0.000 OA
ATOM     37  C   UNL     1     -62.792 -44.146 -48.930  0.00  0.00    +0.000 C 
ATOM     38  C   UNL     1     -63.783 -43.815 -49.984  0.00  0.00    +0.000 C 
ENDBRANCH  35  37
ENDBRANCH  20  35
BRANCH   6  39
ATOM     39  C   UNL     1     -54.239 -48.303 -49.212  0.00  0.00    +0.000 C 
BRANCH  39  41
ATOM     40  O   UNL     1     -52.821 -48.684 -47.127  0.00  0.00    +0.000 OA
ATOM     41  C   UNL     1     -53.136 -49.012 -48.503  0.00  0.00    +0.000 C 
ATOM     42  C   UNL     1     -53.568 -49.802 -47.354  0.00  0.00    +0.000 C 
ATOM     43  C   UNL     1     -51.792 -49.238 -49.278  0.00  0.00    +0.000 C 
BRANCH  42  44
ATOM     44  C   UNL     1     -53.003 -51.086 -47.052  0.00  0.00    +0.000 C 
ATOM     45  C   UNL     1     -52.241 -51.293 -45.768  0.00  0.00    +0.000 C 
BRANCH  44  46
ATOM     46  C   UNL     1     -53.594 -52.246 -47.621  0.00  0.00    +0.000 C 
ATOM     47  C   UNL     1     -54.092 -53.266 -48.007  0.00  0.00    +0.000 C 
ATOM     48  C   UNL     1     -54.696 -54.630 -48.372  0.00  0.00    +0.000 C 
ENDBRANCH  44  46
ENDBRANCH  42  44
ENDBRANCH  39  41
BRANCH  39  49
ATOM     49  O   UNL     1     -55.241 -49.000 -49.872  0.00  0.00    +0.000 OA
ATOM     50  H   UNL     1     -56.135 -48.728 -49.589  0.00  0.00    +0.000 HD
ENDBRANCH  39  49
ENDBRANCH   6  39
BRANCH   9  51
ATOM     51  C   UNL     1     -53.935 -44.649 -52.017  0.00  0.00    +0.000 C 
BRANCH  51  52
ATOM     52  O   UNL     1     -53.193 -43.970 -52.892  0.00  0.00    +0.000 OA
ATOM     53  H   UNL     1     -52.311 -44.376 -52.983  0.00  0.00    +0.000 HD
ENDBRANCH  51  52
ENDBRANCH   9  51
TORSDOF 13
ENDMDL
