MODEL 1
REMARK VINA RESULT:      -5.9      0.000      0.000
REMARK  Name = 101808842_CandidaspongiolideB.pdbqt.pdb
REMARK  12 active torsions:
REMARK  status: ('A' for Active; 'I' for Inactive)
REMARK    1  A    between atoms: C_6  and  C_42
REMARK    2  A    between atoms: C_7  and  O_28
REMARK    3  A    between atoms: C_10  and  O_30
REMARK    4  A    between atoms: C_13  and  O_32
REMARK    5  A    between atoms: C_19  and  O_34
REMARK    6  A    between atoms: C_20  and  O_38
REMARK    7  A    between atoms: C_21  and  O_36
REMARK    8  A    between atoms: O_38  and  C_40
REMARK    9  A    between atoms: C_42  and  C_44
REMARK   10  A    between atoms: C_42  and  O_52
REMARK   11  A    between atoms: C_45  and  C_47
REMARK   12  A    between atoms: C_47  and  C_49
REMARK                            x       y       z     vdW  Elec       q    Type
REMARK                         _______ _______ _______ _____ _____    ______ ____
ROOT
ATOM      1  O   UNL     1     -59.206 -56.003 -24.248  0.00  0.00    +0.000 OA
ATOM      2  O   UNL     1     -62.605 -50.682 -21.537  0.00  0.00    +0.000 OA
ATOM      3  O   UNL     1     -59.566 -53.635 -21.287  0.00  0.00    +0.000 OA
ATOM      4  O   UNL     1     -60.662 -50.528 -22.771  0.00  0.00    +0.000 OA
ATOM      5  O   UNL     1     -60.985 -50.803 -25.701  0.00  0.00    +0.000 OA
ATOM      6  C   UNL     1     -61.818 -53.220 -20.801  0.00  0.00    +0.000 C 
ATOM      7  C   UNL     1     -61.172 -54.705 -22.817  0.00  0.00    +0.000 C 
ATOM      8  C   UNL     1     -60.735 -53.838 -21.616  0.00  0.00    +0.000 C 
ATOM      9  C   UNL     1     -62.237 -51.898 -21.127  0.00  0.00    +0.000 C 
ATOM     10  C   UNL     1     -61.348 -53.837 -24.079  0.00  0.00    +0.000 C 
ATOM     11  C   UNL     1     -60.539 -54.211 -25.193  0.00  0.00    +0.000 C 
ATOM     12  C   UNL     1     -60.067 -55.598 -23.291  0.00  0.00    +0.000 C 
ATOM     13  C   UNL     1     -59.473 -55.220 -25.482  0.00  0.00    +0.000 C 
ATOM     14  C   UNL     1     -58.175 -54.539 -25.941  0.00  0.00    +0.000 C 
ATOM     15  C   UNL     1     -57.985 -53.134 -25.782  0.00  0.00    +0.000 C 
ATOM     16  C   UNL     1     -57.026 -55.205 -26.692  0.00  0.00    +0.000 C 
ATOM     17  C   UNL     1     -61.768 -50.118 -22.450  0.00  0.00    +0.000 C 
ATOM     18  C   UNL     1     -57.892 -51.849 -25.631  0.00  0.00    +0.000 C 
ATOM     19  C   UNL     1     -62.417 -48.955 -23.098  0.00  0.00    +0.000 C 
ATOM     20  C   UNL     1     -58.228 -50.934 -26.698  0.00  0.00    +0.000 C 
ATOM     21  C   UNL     1     -61.938 -48.432 -24.363  0.00  0.00    +0.000 C 
ATOM     22  C   UNL     1     -59.049 -49.731 -26.579  0.00  0.00    +0.000 C 
ATOM     23  C   UNL     1     -60.597 -48.570 -24.913  0.00  0.00    +0.000 C 
ATOM     24  C   UNL     1     -60.277 -49.791 -25.718  0.00  0.00    +0.000 C 
ATOM     25  C   UNL     1     -57.614 -51.355 -24.241  0.00  0.00    +0.000 C 
ATOM     26  C   UNL     1     -58.958 -48.646 -27.650  0.00  0.00    +0.000 C 
ATOM     27  C   UNL     1     -59.513 -47.605 -24.444  0.00  0.00    +0.000 C 
ENDROOT
BRANCH   7  28
ATOM     28  O   UNL     1     -62.337 -55.483 -22.630  0.00  0.00    +0.000 OA
ATOM     29  H   UNL     1     -63.070 -54.854 -22.503  0.00  0.00    +0.000 HD
ENDBRANCH   7  28
BRANCH  10  30
ATOM     30  O   UNL     1     -62.231 -52.790 -24.141  0.00  0.00    +0.000 OA
ATOM     31  H   UNL     1     -62.363 -52.384 -23.258  0.00  0.00    +0.000 HD
ENDBRANCH  10  30
BRANCH  13  32
ATOM     32  O   UNL     1     -59.970 -56.105 -26.483  0.00  0.00    +0.000 OA
ATOM     33  H   UNL     1     -59.255 -56.739 -26.652  0.00  0.00    +0.000 HD
ENDBRANCH  13  32
BRANCH  19  34
ATOM     34  O   UNL     1     -63.588 -48.403 -22.612  0.00  0.00    +0.000 OA
ATOM     35  H   UNL     1     -63.435 -47.680 -21.970  0.00  0.00    +0.000 HD
ENDBRANCH  19  34
BRANCH  21  36
ATOM     36  O   UNL     1     -62.718 -47.424 -24.905  0.00  0.00    +0.000 OA
ATOM     37  C   UNL     1     -63.368 -47.865 -26.071  0.00  0.00    +0.000 C 
ENDBRANCH  21  36
BRANCH  20  38
ATOM     38  O   UNL     1     -57.454 -51.082 -27.874  0.00  0.00    +0.000 OA
BRANCH  38  40
ATOM     39  O   UNL     1     -55.627 -49.815 -27.177  0.00  0.00    +0.000 OA
ATOM     40  C   UNL     1     -56.145 -50.821 -27.626  0.00  0.00    +0.000 C 
ATOM     41  C   UNL     1     -55.202 -51.895 -28.026  0.00  0.00    +0.000 C 
ENDBRANCH  38  40
ENDBRANCH  20  38
BRANCH   6  42
ATOM     42  C   UNL     1     -62.239 -53.890 -19.591  0.00  0.00    +0.000 C 
BRANCH  42  44
ATOM     43  O   UNL     1     -64.495 -52.908 -19.010  0.00  0.00    +0.000 OA
ATOM     44  C   UNL     1     -63.146 -53.245 -18.606  0.00  0.00    +0.000 C 
ATOM     45  C   UNL     1     -64.316 -54.058 -18.292  0.00  0.00    +0.000 C 
ATOM     46  C   UNL     1     -62.584 -52.094 -17.706  0.00  0.00    +0.000 C 
BRANCH  45  47
ATOM     47  C   UNL     1     -64.934 -54.126 -17.002  0.00  0.00    +0.000 C 
ATOM     48  C   UNL     1     -66.086 -53.215 -16.663  0.00  0.00    +0.000 C 
BRANCH  47  49
ATOM     49  C   UNL     1     -64.807 -55.294 -16.208  0.00  0.00    +0.000 C 
ATOM     50  C   UNL     1     -64.633 -56.280 -15.549  0.00  0.00    +0.000 C 
ATOM     51  C   UNL     1     -64.295 -57.541 -14.749  0.00  0.00    +0.000 C 
ENDBRANCH  47  49
ENDBRANCH  45  47
ENDBRANCH  42  44
BRANCH  42  52
ATOM     52  O   UNL     1     -61.764 -55.186 -19.433  0.00  0.00    +0.000 OA
ATOM     53  H   UNL     1     -60.991 -55.224 -18.833  0.00  0.00    +0.000 HD
ENDBRANCH  42  52
ENDBRANCH   6  42
TORSDOF 12
ENDMDL
MODEL 2
REMARK VINA RESULT:      -5.8      1.405      2.179
REMARK  Name = 101808842_CandidaspongiolideB.pdbqt.pdb
REMARK  12 active torsions:
REMARK  status: ('A' for Active; 'I' for Inactive)
REMARK    1  A    between atoms: C_6  and  C_42
REMARK    2  A    between atoms: C_7  and  O_28
REMARK    3  A    between atoms: C_10  and  O_30
REMARK    4  A    between atoms: C_13  and  O_32
REMARK    5  A    between atoms: C_19  and  O_34
REMARK    6  A    between atoms: C_20  and  O_38
REMARK    7  A    between atoms: C_21  and  O_36
REMARK    8  A    between atoms: O_38  and  C_40
REMARK    9  A    between atoms: C_42  and  C_44
REMARK   10  A    between atoms: C_42  and  O_52
REMARK   11  A    between atoms: C_45  and  C_47
REMARK   12  A    between atoms: C_47  and  C_49
REMARK                            x       y       z     vdW  Elec       q    Type
REMARK                         _______ _______ _______ _____ _____    ______ ____
ROOT
ATOM      1  O   UNL     1     -59.005 -56.762 -23.617  0.00  0.00    +0.000 OA
ATOM      2  O   UNL     1     -62.229 -50.825 -22.360  0.00  0.00    +0.000 OA
ATOM      3  O   UNL     1     -59.608 -53.933 -21.139  0.00  0.00    +0.000 OA
ATOM      4  O   UNL     1     -60.100 -51.023 -23.225  0.00  0.00    +0.000 OA
ATOM      5  O   UNL     1     -59.949 -51.733 -26.096  0.00  0.00    +0.000 OA
ATOM      6  C   UNL     1     -61.852 -53.268 -21.139  0.00  0.00    +0.000 C 
ATOM      7  C   UNL     1     -61.036 -55.101 -22.770  0.00  0.00    +0.000 C 
ATOM      8  C   UNL     1     -60.719 -54.092 -21.646  0.00  0.00    +0.000 C 
ATOM      9  C   UNL     1     -62.067 -51.986 -21.721  0.00  0.00    +0.000 C 
ATOM     10  C   UNL     1     -60.903 -54.433 -24.154  0.00  0.00    +0.000 C 
ATOM     11  C   UNL     1     -59.961 -55.043 -25.036  0.00  0.00    +0.000 C 
ATOM     12  C   UNL     1     -59.968 -56.143 -22.902  0.00  0.00    +0.000 C 
ATOM     13  C   UNL     1     -58.974 -56.166 -24.978  0.00  0.00    +0.000 C 
ATOM     14  C   UNL     1     -57.553 -55.671 -25.283  0.00  0.00    +0.000 C 
ATOM     15  C   UNL     1     -57.243 -54.279 -25.293  0.00  0.00    +0.000 C 
ATOM     16  C   UNL     1     -56.371 -56.537 -25.707  0.00  0.00    +0.000 C 
ATOM     17  C   UNL     1     -61.194 -50.482 -23.175  0.00  0.00    +0.000 C 
ATOM     18  C   UNL     1     -57.042 -52.997 -25.311  0.00  0.00    +0.000 C 
ATOM     19  C   UNL     1     -61.597 -49.388 -24.090  0.00  0.00    +0.000 C 
ATOM     20  C   UNL     1     -57.092 -52.239 -26.540  0.00  0.00    +0.000 C 
ATOM     21  C   UNL     1     -60.857 -49.112 -25.306  0.00  0.00    +0.000 C 
ATOM     22  C   UNL     1     -57.790 -50.971 -26.746  0.00  0.00    +0.000 C 
ATOM     23  C   UNL     1     -59.465 -49.441 -25.575  0.00  0.00    +0.000 C 
ATOM     24  C   UNL     1     -59.144 -50.796 -26.126  0.00  0.00    +0.000 C 
ATOM     25  C   UNL     1     -56.952 -52.312 -23.978  0.00  0.00    +0.000 C 
ATOM     26  C   UNL     1     -57.403 -50.081 -27.926  0.00  0.00    +0.000 C 
ATOM     27  C   UNL     1     -58.379 -48.504 -25.057  0.00  0.00    +0.000 C 
ENDROOT
BRANCH   7  28
ATOM     28  O   UNL     1     -62.291 -55.745 -22.692  0.00  0.00    +0.000 OA
ATOM     29  H   UNL     1     -62.780 -55.493 -23.497  0.00  0.00    +0.000 HD
ENDBRANCH   7  28
BRANCH  10  30
ATOM     30  O   UNL     1     -61.645 -53.343 -24.525  0.00  0.00    +0.000 OA
ATOM     31  H   UNL     1     -62.586 -53.583 -24.662  0.00  0.00    +0.000 HD
ENDBRANCH  10  30
BRANCH  13  32
ATOM     32  O   UNL     1     -59.386 -57.156 -25.917  0.00  0.00    +0.000 OA
ATOM     33  H   UNL     1     -59.150 -58.010 -25.519  0.00  0.00    +0.000 HD
ENDBRANCH  13  32
BRANCH  19  34
ATOM     34  O   UNL     1     -62.767 -48.675 -23.910  0.00  0.00    +0.000 OA
ATOM     35  H   UNL     1     -63.101 -48.268 -24.736  0.00  0.00    +0.000 HD
ENDBRANCH  19  34
BRANCH  21  36
ATOM     36  O   UNL     1     -61.422 -48.144 -26.120  0.00  0.00    +0.000 OA
ATOM     37  C   UNL     1     -61.913 -48.712 -27.308  0.00  0.00    +0.000 C 
ENDBRANCH  21  36
BRANCH  20  38
ATOM     38  O   UNL     1     -56.151 -52.633 -27.521  0.00  0.00    +0.000 OA
BRANCH  38  40
ATOM     39  O   UNL     1     -54.345 -51.414 -26.695  0.00  0.00    +0.000 OA
ATOM     40  C   UNL     1     -54.882 -52.438 -27.078  0.00  0.00    +0.000 C 
ATOM     41  C   UNL     1     -54.004 -53.632 -27.134  0.00  0.00    +0.000 C 
ENDBRANCH  38  40
ENDBRANCH  20  38
BRANCH   6  42
ATOM     42  C   UNL     1     -62.542 -53.703 -19.944  0.00  0.00    +0.000 C 
BRANCH  42  44
ATOM     43  O   UNL     1     -64.410 -52.001 -19.868  0.00  0.00    +0.000 OA
ATOM     44  C   UNL     1     -63.421 -52.792 -19.165  0.00  0.00    +0.000 C 
ATOM     45  C   UNL     1     -64.833 -53.149 -19.256  0.00  0.00    +0.000 C 
ATOM     46  C   UNL     1     -62.786 -51.919 -18.032  0.00  0.00    +0.000 C 
BRANCH  45  47
ATOM     47  C   UNL     1     -65.775 -53.011 -18.186  0.00  0.00    +0.000 C 
ATOM     48  C   UNL     1     -65.699 -53.922 -16.987  0.00  0.00    +0.000 C 
BRANCH  47  49
ATOM     49  C   UNL     1     -66.475 -51.793 -18.002  0.00  0.00    +0.000 C 
ATOM     50  C   UNL     1     -67.103 -50.793 -17.798  0.00  0.00    +0.000 C 
ATOM     51  C   UNL     1     -67.978 -49.582 -17.462  0.00  0.00    +0.000 C 
ENDBRANCH  47  49
ENDBRANCH  45  47
ENDBRANCH  42  44
BRANCH  42  52
ATOM     52  O   UNL     1     -62.349 -55.034 -19.598  0.00  0.00    +0.000 OA
ATOM     53  H   UNL     1     -61.422 -55.218 -19.343  0.00  0.00    +0.000 HD
ENDBRANCH  42  52
ENDBRANCH   6  42
TORSDOF 12
ENDMDL
MODEL 3
REMARK VINA RESULT:      -5.7     44.276     48.382
REMARK  Name = 101808842_CandidaspongiolideB.pdbqt.pdb
REMARK  12 active torsions:
REMARK  status: ('A' for Active; 'I' for Inactive)
REMARK    1  A    between atoms: C_6  and  C_42
REMARK    2  A    between atoms: C_7  and  O_28
REMARK    3  A    between atoms: C_10  and  O_30
REMARK    4  A    between atoms: C_13  and  O_32
REMARK    5  A    between atoms: C_19  and  O_34
REMARK    6  A    between atoms: C_20  and  O_38
REMARK    7  A    between atoms: C_21  and  O_36
REMARK    8  A    between atoms: O_38  and  C_40
REMARK    9  A    between atoms: C_42  and  C_44
REMARK   10  A    between atoms: C_42  and  O_52
REMARK   11  A    between atoms: C_45  and  C_47
REMARK   12  A    between atoms: C_47  and  C_49
REMARK                            x       y       z     vdW  Elec       q    Type
REMARK                         _______ _______ _______ _____ _____    ______ ____
ROOT
ATOM      1  O   UNL     1     -70.131 -45.662 -67.594  0.00  0.00    +0.000 OA
ATOM      2  O   UNL     1     -73.341 -51.173 -70.150  0.00  0.00    +0.000 OA
ATOM      3  O   UNL     1     -73.332 -47.724 -67.677  0.00  0.00    +0.000 OA
ATOM      4  O   UNL     1     -73.442 -49.046 -71.038  0.00  0.00    +0.000 OA
ATOM      5  O   UNL     1     -71.070 -48.198 -72.595  0.00  0.00    +0.000 OA
ATOM      6  C   UNL     1     -72.865 -50.017 -67.693  0.00  0.00    +0.000 C 
ATOM      7  C   UNL     1     -70.937 -48.294 -67.741  0.00  0.00    +0.000 C 
ATOM      8  C   UNL     1     -72.453 -48.586 -67.706  0.00  0.00    +0.000 C 
ATOM      9  C   UNL     1     -73.149 -50.648 -68.938  0.00  0.00    +0.000 C 
ATOM     10  C   UNL     1     -70.427 -48.242 -69.195  0.00  0.00    +0.000 C 
ATOM     11  C   UNL     1     -69.809 -47.015 -69.580  0.00  0.00    +0.000 C 
ATOM     12  C   UNL     1     -70.630 -46.887 -67.328  0.00  0.00    +0.000 C 
ATOM     13  C   UNL     1     -69.553 -45.677 -68.963  0.00  0.00    +0.000 C 
ATOM     14  C   UNL     1     -70.189 -44.552 -69.794  0.00  0.00    +0.000 C 
ATOM     15  C   UNL     1     -71.142 -44.840 -70.816  0.00  0.00    +0.000 C 
ATOM     16  C   UNL     1     -69.829 -43.072 -69.729  0.00  0.00    +0.000 C 
ATOM     17  C   UNL     1     -73.380 -50.261 -71.160  0.00  0.00    +0.000 C 
ATOM     18  C   UNL     1     -71.980 -45.178 -71.746  0.00  0.00    +0.000 C 
ATOM     19  C   UNL     1     -73.247 -50.935 -72.473  0.00  0.00    +0.000 C 
ATOM     20  C   UNL     1     -71.561 -45.352 -73.118  0.00  0.00    +0.000 C 
ATOM     21  C   UNL     1     -72.851 -50.202 -73.659  0.00  0.00    +0.000 C 
ATOM     22  C   UNL     1     -71.912 -46.467 -73.995  0.00  0.00    +0.000 C 
ATOM     23  C   UNL     1     -73.003 -48.774 -73.895  0.00  0.00    +0.000 C 
ATOM     24  C   UNL     1     -71.926 -47.851 -73.415  0.00  0.00    +0.000 C 
ATOM     25  C   UNL     1     -73.358 -45.574 -71.298  0.00  0.00    +0.000 C 
ATOM     26  C   UNL     1     -71.777 -46.308 -75.509  0.00  0.00    +0.000 C 
ATOM     27  C   UNL     1     -74.350 -48.254 -74.386  0.00  0.00    +0.000 C 
ENDROOT
BRANCH   7  28
ATOM     28  O   UNL     1     -70.117 -49.174 -66.999  0.00  0.00    +0.000 OA
ATOM     29  H   UNL     1     -69.674 -48.632 -66.321  0.00  0.00    +0.000 HD
ENDBRANCH   7  28
BRANCH  10  30
ATOM     30  O   UNL     1     -70.539 -49.302 -70.057  0.00  0.00    +0.000 OA
ATOM     31  H   UNL     1     -71.413 -49.737 -69.973  0.00  0.00    +0.000 HD
ENDBRANCH  10  30
BRANCH  13  32
ATOM     32  O   UNL     1     -68.143 -45.505 -68.862  0.00  0.00    +0.000 OA
ATOM     33  H   UNL     1     -68.012 -44.722 -68.304  0.00  0.00    +0.000 HD
ENDBRANCH  13  32
BRANCH  19  34
ATOM     34  O   UNL     1     -73.349 -52.307 -72.606  0.00  0.00    +0.000 OA
ATOM     35  H   UNL     1     -73.279 -52.783 -71.753  0.00  0.00    +0.000 HD
ENDBRANCH  19  34
BRANCH  21  36
ATOM     36  O   UNL     1     -72.649 -50.986 -74.783  0.00  0.00    +0.000 OA
ATOM     37  C   UNL     1     -71.392 -50.725 -75.358  0.00  0.00    +0.000 C 
ENDBRANCH  21  36
BRANCH  20  38
ATOM     38  O   UNL     1     -71.004 -44.199 -73.720  0.00  0.00    +0.000 OA
BRANCH  38  40
ATOM     39  O   UNL     1     -68.872 -45.098 -73.439  0.00  0.00    +0.000 OA
ATOM     40  C   UNL     1     -69.656 -44.173 -73.557  0.00  0.00    +0.000 C 
ATOM     41  C   UNL     1     -69.062 -42.820 -73.435  0.00  0.00    +0.000 C 
ENDBRANCH  38  40
ENDBRANCH  20  38
BRANCH   6  42
ATOM     42  C   UNL     1     -73.169 -50.637 -66.423  0.00  0.00    +0.000 C 
BRANCH  42  44
ATOM     43  O   UNL     1     -73.700 -50.413 -63.961  0.00  0.00    +0.000 OA
ATOM     44  C   UNL     1     -73.792 -49.881 -65.305  0.00  0.00    +0.000 C 
ATOM     45  C   UNL     1     -72.821 -49.426 -64.315  0.00  0.00    +0.000 C 
ATOM     46  C   UNL     1     -75.218 -49.270 -65.512  0.00  0.00    +0.000 C 
BRANCH  45  47
ATOM     47  C   UNL     1     -72.909 -48.186 -63.604  0.00  0.00    +0.000 C 
ATOM     48  C   UNL     1     -73.753 -48.084 -62.359  0.00  0.00    +0.000 C 
BRANCH  47  49
ATOM     49  C   UNL     1     -71.904 -47.199 -63.760  0.00  0.00    +0.000 C 
ATOM     50  C   UNL     1     -71.096 -46.320 -63.863  0.00  0.00    +0.000 C 
ATOM     51  C   UNL     1     -70.152 -45.118 -63.958  0.00  0.00    +0.000 C 
ENDBRANCH  47  49
ENDBRANCH  45  47
ENDBRANCH  42  44
BRANCH  42  52
ATOM     52  O   UNL     1     -72.867 -51.990 -66.334  0.00  0.00    +0.000 OA
ATOM     53  H   UNL     1     -71.911 -52.146 -66.192  0.00  0.00    +0.000 HD
ENDBRANCH  42  52
ENDBRANCH   6  42
TORSDOF 12
ENDMDL
MODEL 4
REMARK VINA RESULT:      -5.5     15.603     18.834
REMARK  Name = 101808842_CandidaspongiolideB.pdbqt.pdb
REMARK  12 active torsions:
REMARK  status: ('A' for Active; 'I' for Inactive)
REMARK    1  A    between atoms: C_6  and  C_42
REMARK    2  A    between atoms: C_7  and  O_28
REMARK    3  A    between atoms: C_10  and  O_30
REMARK    4  A    between atoms: C_13  and  O_32
REMARK    5  A    between atoms: C_19  and  O_34
REMARK    6  A    between atoms: C_20  and  O_38
REMARK    7  A    between atoms: C_21  and  O_36
REMARK    8  A    between atoms: O_38  and  C_40
REMARK    9  A    between atoms: C_42  and  C_44
REMARK   10  A    between atoms: C_42  and  O_52
REMARK   11  A    between atoms: C_45  and  C_47
REMARK   12  A    between atoms: C_47  and  C_49
REMARK                            x       y       z     vdW  Elec       q    Type
REMARK                         _______ _______ _______ _____ _____    ______ ____
ROOT
ATOM      1  O   UNL     1     -69.521 -56.485 -38.147  0.00  0.00    +0.000 OA
ATOM      2  O   UNL     1     -67.497 -61.487 -33.893  0.00  0.00    +0.000 OA
ATOM      3  O   UNL     1     -70.334 -58.549 -35.051  0.00  0.00    +0.000 OA
ATOM      4  O   UNL     1     -68.860 -61.778 -35.732  0.00  0.00    +0.000 OA
ATOM      5  O   UNL     1     -67.481 -61.788 -38.353  0.00  0.00    +0.000 OA
ATOM      6  C   UNL     1     -68.427 -58.897 -33.738  0.00  0.00    +0.000 C 
ATOM      7  C   UNL     1     -68.251 -57.621 -35.981  0.00  0.00    +0.000 C 
ATOM      8  C   UNL     1     -69.119 -58.370 -34.948  0.00  0.00    +0.000 C 
ATOM      9  C   UNL     1     -67.955 -60.240 -33.763  0.00  0.00    +0.000 C 
ATOM     10  C   UNL     1     -67.650 -58.606 -37.003  0.00  0.00    +0.000 C 
ATOM     11  C   UNL     1     -67.986 -58.350 -38.366  0.00  0.00    +0.000 C 
ATOM     12  C   UNL     1     -69.081 -56.788 -36.909  0.00  0.00    +0.000 C 
ATOM     13  C   UNL     1     -68.845 -57.383 -39.119  0.00  0.00    +0.000 C 
ATOM     14  C   UNL     1     -69.904 -58.117 -39.955  0.00  0.00    +0.000 C 
ATOM     15  C   UNL     1     -70.179 -59.501 -39.745  0.00  0.00    +0.000 C 
ATOM     16  C   UNL     1     -70.681 -57.536 -41.132  0.00  0.00    +0.000 C 
ATOM     17  C   UNL     1     -67.958 -62.145 -34.992  0.00  0.00    +0.000 C 
ATOM     18  C   UNL     1     -70.356 -60.765 -39.518  0.00  0.00    +0.000 C 
ATOM     19  C   UNL     1     -67.151 -63.361 -35.246  0.00  0.00    +0.000 C 
ATOM     20  C   UNL     1     -69.681 -61.778 -40.297  0.00  0.00    +0.000 C 
ATOM     21  C   UNL     1     -67.150 -64.008 -36.543  0.00  0.00    +0.000 C 
ATOM     22  C   UNL     1     -68.993 -62.957 -39.773  0.00  0.00    +0.000 C 
ATOM     23  C   UNL     1     -68.193 -63.936 -37.555  0.00  0.00    +0.000 C 
ATOM     24  C   UNL     1     -68.163 -62.803 -38.533  0.00  0.00    +0.000 C 
ATOM     25  C   UNL     1     -71.136 -61.124 -38.286  0.00  0.00    +0.000 C 
ATOM     26  C   UNL     1     -68.718 -64.142 -40.697  0.00  0.00    +0.000 C 
ATOM     27  C   UNL     1     -69.400 -64.859 -37.428  0.00  0.00    +0.000 C 
ENDROOT
BRANCH   7  28
ATOM     28  O   UNL     1     -67.213 -56.818 -35.455  0.00  0.00    +0.000 OA
ATOM     29  H   UNL     1     -67.579 -56.376 -34.668  0.00  0.00    +0.000 HD
ENDBRANCH   7  28
BRANCH  10  30
ATOM     30  O   UNL     1     -66.836 -59.647 -36.639  0.00  0.00    +0.000 OA
ATOM     31  H   UNL     1     -66.521 -59.545 -35.717  0.00  0.00    +0.000 HD
ENDBRANCH  10  30
BRANCH  13  32
ATOM     32  O   UNL     1     -67.992 -56.596 -39.947  0.00  0.00    +0.000 OA
ATOM     33  H   UNL     1     -68.572 -56.190 -40.611  0.00  0.00    +0.000 HD
ENDBRANCH  13  32
BRANCH  19  34
ATOM     34  O   UNL     1     -66.254 -63.852 -34.315  0.00  0.00    +0.000 OA
ATOM     35  H   UNL     1     -66.055 -64.803 -34.437  0.00  0.00    +0.000 HD
ENDBRANCH  19  34
BRANCH  21  36
ATOM     36  O   UNL     1     -66.255 -65.058 -36.664  0.00  0.00    +0.000 OA
ATOM     37  C   UNL     1     -65.218 -64.733 -37.557  0.00  0.00    +0.000 C 
ENDBRANCH  21  36
BRANCH  20  38
ATOM     38  O   UNL     1     -69.967 -61.751 -41.683  0.00  0.00    +0.000 OA
BRANCH  38  40
ATOM     39  O   UNL     1     -71.954 -62.966 -41.591  0.00  0.00    +0.000 OA
ATOM     40  C   UNL     1     -71.283 -62.001 -41.908  0.00  0.00    +0.000 C 
ATOM     41  C   UNL     1     -71.988 -60.977 -42.719  0.00  0.00    +0.000 C 
ENDBRANCH  38  40
ENDBRANCH  20  38
BRANCH   6  42
ATOM     42  C   UNL     1     -68.457 -58.107 -32.527  0.00  0.00    +0.000 C 
BRANCH  42  44
ATOM     43  O   UNL     1     -69.653 -56.490 -30.995  0.00  0.00    +0.000 OA
ATOM     44  C   UNL     1     -69.722 -57.549 -31.981  0.00  0.00    +0.000 C 
ATOM     45  C   UNL     1     -69.900 -56.134 -32.292  0.00  0.00    +0.000 C 
ATOM     46  C   UNL     1     -70.872 -58.534 -31.587  0.00  0.00    +0.000 C 
BRANCH  45  47
ATOM     47  C   UNL     1     -71.162 -55.519 -32.572  0.00  0.00    +0.000 C 
ATOM     48  C   UNL     1     -71.870 -54.721 -31.507  0.00  0.00    +0.000 C 
BRANCH  47  49
ATOM     49  C   UNL     1     -71.548 -55.254 -33.911  0.00  0.00    +0.000 C 
ATOM     50  C   UNL     1     -71.823 -54.987 -35.046  0.00  0.00    +0.000 C 
ATOM     51  C   UNL     1     -72.090 -54.555 -36.491  0.00  0.00    +0.000 C 
ENDBRANCH  47  49
ENDBRANCH  45  47
ENDBRANCH  42  44
BRANCH  42  52
ATOM     52  O   UNL     1     -67.231 -57.937 -31.898  0.00  0.00    +0.000 OA
ATOM     53  H   UNL     1     -67.278 -58.133 -30.940  0.00  0.00    +0.000 HD
ENDBRANCH  42  52
ENDBRANCH   6  42
TORSDOF 12
ENDMDL
MODEL 5
REMARK VINA RESULT:      -5.5     45.237     49.206
REMARK  Name = 101808842_CandidaspongiolideB.pdbqt.pdb
REMARK  12 active torsions:
REMARK  status: ('A' for Active; 'I' for Inactive)
REMARK    1  A    between atoms: C_6  and  C_42
REMARK    2  A    between atoms: C_7  and  O_28
REMARK    3  A    between atoms: C_10  and  O_30
REMARK    4  A    between atoms: C_13  and  O_32
REMARK    5  A    between atoms: C_19  and  O_34
REMARK    6  A    between atoms: C_20  and  O_38
REMARK    7  A    between atoms: C_21  and  O_36
REMARK    8  A    between atoms: O_38  and  C_40
REMARK    9  A    between atoms: C_42  and  C_44
REMARK   10  A    between atoms: C_42  and  O_52
REMARK   11  A    between atoms: C_45  and  C_47
REMARK   12  A    between atoms: C_47  and  C_49
REMARK                            x       y       z     vdW  Elec       q    Type
REMARK                         _______ _______ _______ _____ _____    ______ ____
ROOT
ATOM      1  O   UNL     1     -70.102 -45.585 -67.695  0.00  0.00    +0.000 OA
ATOM      2  O   UNL     1     -73.381 -51.054 -70.256  0.00  0.00    +0.000 OA
ATOM      3  O   UNL     1     -73.362 -47.546 -67.865  0.00  0.00    +0.000 OA
ATOM      4  O   UNL     1     -73.376 -48.947 -71.196  0.00  0.00    +0.000 OA
ATOM      5  O   UNL     1     -70.915 -48.213 -72.670  0.00  0.00    +0.000 OA
ATOM      6  C   UNL     1     -72.969 -49.853 -67.808  0.00  0.00    +0.000 C 
ATOM      7  C   UNL     1     -70.987 -48.193 -67.815  0.00  0.00    +0.000 C 
ATOM      8  C   UNL     1     -72.511 -48.436 -67.837  0.00  0.00    +0.000 C 
ATOM      9  C   UNL     1     -73.222 -50.505 -69.049  0.00  0.00    +0.000 C 
ATOM     10  C   UNL     1     -70.415 -48.193 -69.246  0.00  0.00    +0.000 C 
ATOM     11  C   UNL     1     -69.742 -46.996 -69.634  0.00  0.00    +0.000 C 
ATOM     12  C   UNL     1     -70.651 -46.787 -67.422  0.00  0.00    +0.000 C 
ATOM     13  C   UNL     1     -69.469 -45.651 -69.038  0.00  0.00    +0.000 C 
ATOM     14  C   UNL     1     -70.033 -44.529 -69.921  0.00  0.00    +0.000 C 
ATOM     15  C   UNL     1     -70.951 -44.811 -70.975  0.00  0.00    +0.000 C 
ATOM     16  C   UNL     1     -69.627 -43.059 -69.875  0.00  0.00    +0.000 C 
ATOM     17  C   UNL     1     -73.348 -50.165 -71.287  0.00  0.00    +0.000 C 
ATOM     18  C   UNL     1     -71.761 -45.146 -71.932  0.00  0.00    +0.000 C 
ATOM     19  C   UNL     1     -73.182 -50.875 -72.577  0.00  0.00    +0.000 C 
ATOM     20  C   UNL     1     -71.291 -45.366 -73.280  0.00  0.00    +0.000 C 
ATOM     21  C   UNL     1     -72.714 -50.184 -73.763  0.00  0.00    +0.000 C 
ATOM     22  C   UNL     1     -71.642 -46.491 -74.145  0.00  0.00    +0.000 C 
ATOM     23  C   UNL     1     -72.810 -48.758 -74.037  0.00  0.00    +0.000 C 
ATOM     24  C   UNL     1     -71.725 -47.859 -73.534  0.00  0.00    +0.000 C 
ATOM     25  C   UNL     1     -73.168 -45.486 -71.533  0.00  0.00    +0.000 C 
ATOM     26  C   UNL     1     -71.438 -46.374 -75.655  0.00  0.00    +0.000 C 
ATOM     27  C   UNL     1     -74.118 -48.209 -74.597  0.00  0.00    +0.000 C 
ENDROOT
BRANCH   7  28
ATOM     28  O   UNL     1     -70.227 -49.080 -67.019  0.00  0.00    +0.000 OA
ATOM     29  H   UNL     1     -70.750 -49.899 -66.943  0.00  0.00    +0.000 HD
ENDBRANCH   7  28
BRANCH  10  30
ATOM     30  O   UNL     1     -70.525 -49.269 -70.088  0.00  0.00    +0.000 OA
ATOM     31  H   UNL     1     -71.401 -49.701 -70.000  0.00  0.00    +0.000 HD
ENDBRANCH  10  30
BRANCH  13  32
ATOM     32  O   UNL     1     -68.058 -45.522 -68.881  0.00  0.00    +0.000 OA
ATOM     33  H   UNL     1     -67.742 -46.399 -68.611  0.00  0.00    +0.000 HD
ENDBRANCH  13  32
BRANCH  19  34
ATOM     34  O   UNL     1     -73.323 -52.247 -72.683  0.00  0.00    +0.000 OA
ATOM     35  H   UNL     1     -73.316 -52.564 -73.609  0.00  0.00    +0.000 HD
ENDBRANCH  19  34
BRANCH  21  36
ATOM     36  O   UNL     1     -72.491 -51.002 -74.858  0.00  0.00    +0.000 OA
ATOM     37  C   UNL     1     -71.274 -50.681 -75.484  0.00  0.00    +0.000 C 
ENDBRANCH  21  36
BRANCH  20  38
ATOM     38  O   UNL     1     -70.672 -44.246 -73.884  0.00  0.00    +0.000 OA
BRANCH  38  40
ATOM     39  O   UNL     1     -68.545 -44.940 -73.232  0.00  0.00    +0.000 OA
ATOM     40  C   UNL     1     -69.335 -44.447 -74.016  0.00  0.00    +0.000 C 
ATOM     41  C   UNL     1     -68.741 -43.926 -75.272  0.00  0.00    +0.000 C 
ENDBRANCH  38  40
ENDBRANCH  20  38
BRANCH   6  42
ATOM     42  C   UNL     1     -73.346 -50.432 -66.538  0.00  0.00    +0.000 C 
BRANCH  42  44
ATOM     43  O   UNL     1     -75.368 -51.455 -65.417  0.00  0.00    +0.000 OA
ATOM     44  C   UNL     1     -74.341 -51.531 -66.435  0.00  0.00    +0.000 C 
ATOM     45  C   UNL     1     -75.707 -51.087 -66.690  0.00  0.00    +0.000 C 
ATOM     46  C   UNL     1     -73.842 -53.011 -66.542  0.00  0.00    +0.000 C 
BRANCH  45  47
ATOM     47  C   UNL     1     -76.704 -51.872 -67.353  0.00  0.00    +0.000 C 
ATOM     48  C   UNL     1     -77.997 -52.205 -66.654  0.00  0.00    +0.000 C 
BRANCH  47  49
ATOM     49  C   UNL     1     -76.717 -51.965 -68.768  0.00  0.00    +0.000 C 
ATOM     50  C   UNL     1     -76.769 -51.990 -69.965  0.00  0.00    +0.000 C 
ATOM     51  C   UNL     1     -76.923 -51.934 -71.488  0.00  0.00    +0.000 C 
ENDBRANCH  47  49
ENDBRANCH  45  47
ENDBRANCH  42  44
BRANCH  42  52
ATOM     52  O   UNL     1     -72.691 -49.910 -65.429  0.00  0.00    +0.000 OA
ATOM     53  H   UNL     1     -72.908 -48.967 -65.283  0.00  0.00    +0.000 HD
ENDBRANCH  42  52
ENDBRANCH   6  42
TORSDOF 12
ENDMDL
MODEL 6
REMARK VINA RESULT:      -5.5     63.240     68.833
REMARK  Name = 101808842_CandidaspongiolideB.pdbqt.pdb
REMARK  12 active torsions:
REMARK  status: ('A' for Active; 'I' for Inactive)
REMARK    1  A    between atoms: C_6  and  C_42
REMARK    2  A    between atoms: C_7  and  O_28
REMARK    3  A    between atoms: C_10  and  O_30
REMARK    4  A    between atoms: C_13  and  O_32
REMARK    5  A    between atoms: C_19  and  O_34
REMARK    6  A    between atoms: C_20  and  O_38
REMARK    7  A    between atoms: C_21  and  O_36
REMARK    8  A    between atoms: O_38  and  C_40
REMARK    9  A    between atoms: C_42  and  C_44
REMARK   10  A    between atoms: C_42  and  O_52
REMARK   11  A    between atoms: C_45  and  C_47
REMARK   12  A    between atoms: C_47  and  C_49
REMARK                            x       y       z     vdW  Elec       q    Type
REMARK                         _______ _______ _______ _____ _____    ______ ____
ROOT
ATOM      1  O   UNL     1     -42.552 -63.099 -90.372  0.00  0.00    +0.000 OA
ATOM      2  O   UNL     1     -46.731 -58.368 -87.657  0.00  0.00    +0.000 OA
ATOM      3  O   UNL     1     -42.831 -59.915 -88.300  0.00  0.00    +0.000 OA
ATOM      4  O   UNL     1     -45.682 -58.196 -89.705  0.00  0.00    +0.000 OA
ATOM      5  O   UNL     1     -46.900 -59.769 -91.899  0.00  0.00    +0.000 OA
ATOM      6  C   UNL     1     -44.665 -60.005 -86.849  0.00  0.00    +0.000 C 
ATOM      7  C   UNL     1     -44.208 -61.947 -88.494  0.00  0.00    +0.000 C 
ATOM      8  C   UNL     1     -43.808 -60.568 -87.929  0.00  0.00    +0.000 C 
ATOM      9  C   UNL     1     -45.728 -59.131 -87.218  0.00  0.00    +0.000 C 
ATOM     10  C   UNL     1     -45.212 -61.790 -89.653  0.00  0.00    +0.000 C 
ATOM     11  C   UNL     1     -44.797 -62.349 -90.899  0.00  0.00    +0.000 C 
ATOM     12  C   UNL     1     -43.081 -62.595 -89.238  0.00  0.00    +0.000 C 
ATOM     13  C   UNL     1     -43.580 -63.028 -91.443  0.00  0.00    +0.000 C 
ATOM     14  C   UNL     1     -43.009 -62.262 -92.645  0.00  0.00    +0.000 C 
ATOM     15  C   UNL     1     -43.436 -60.934 -92.944  0.00  0.00    +0.000 C 
ATOM     16  C   UNL     1     -42.051 -62.820 -93.693  0.00  0.00    +0.000 C 
ATOM     17  C   UNL     1     -46.647 -58.030 -88.973  0.00  0.00    +0.000 C 
ATOM     18  C   UNL     1     -43.891 -59.741 -93.170  0.00  0.00    +0.000 C 
ATOM     19  C   UNL     1     -47.942 -57.494 -89.454  0.00  0.00    +0.000 C 
ATOM     20  C   UNL     1     -44.973 -59.505 -94.098  0.00  0.00    +0.000 C 
ATOM     21  C   UNL     1     -48.259 -57.443 -90.868  0.00  0.00    +0.000 C 
ATOM     22  C   UNL     1     -46.143 -58.661 -93.866  0.00  0.00    +0.000 C 
ATOM     23  C   UNL     1     -47.313 -57.407 -91.974  0.00  0.00    +0.000 C 
ATOM     24  C   UNL     1     -46.793 -58.703 -92.514  0.00  0.00    +0.000 C 
ATOM     25  C   UNL     1     -43.378 -58.646 -92.278  0.00  0.00    +0.000 C 
ATOM     26  C   UNL     1     -46.959 -58.158 -95.055  0.00  0.00    +0.000 C 
ATOM     27  C   UNL     1     -46.701 -56.066 -92.367  0.00  0.00    +0.000 C 
ENDROOT
BRANCH   7  28
ATOM     28  O   UNL     1     -44.728 -62.874 -87.562  0.00  0.00    +0.000 OA
ATOM     29  H   UNL     1     -45.152 -63.580 -88.083  0.00  0.00    +0.000 HD
ENDBRANCH   7  28
BRANCH  10  30
ATOM     30  O   UNL     1     -46.427 -61.173 -89.503  0.00  0.00    +0.000 OA
ATOM     31  H   UNL     1     -46.837 -61.402 -88.642  0.00  0.00    +0.000 HD
ENDBRANCH  10  30
BRANCH  13  32
ATOM     32  O   UNL     1     -43.948 -64.355 -91.807  0.00  0.00    +0.000 OA
ATOM     33  H   UNL     1     -43.356 -64.602 -92.536  0.00  0.00    +0.000 HD
ENDBRANCH  13  32
BRANCH  19  34
ATOM     34  O   UNL     1     -48.963 -57.154 -88.586  0.00  0.00    +0.000 OA
ATOM     35  H   UNL     1     -48.648 -56.959 -87.679  0.00  0.00    +0.000 HD
ENDBRANCH  19  34
BRANCH  21  36
ATOM     36  O   UNL     1     -49.550 -57.035 -91.158  0.00  0.00    +0.000 OA
ATOM     37  C   UNL     1     -50.246 -58.032 -91.863  0.00  0.00    +0.000 C 
ENDBRANCH  21  36
BRANCH  20  38
ATOM     38  O   UNL     1     -44.712 -59.908 -95.429  0.00  0.00    +0.000 OA
BRANCH  38  40
ATOM     39  O   UNL     1     -43.570 -57.992 -96.104  0.00  0.00    +0.000 OA
ATOM     40  C   UNL     1     -43.683 -59.195 -95.956  0.00  0.00    +0.000 C 
ATOM     41  C   UNL     1     -42.564 -60.008 -96.491  0.00  0.00    +0.000 C 
ENDBRANCH  38  40
ENDBRANCH  20  38
BRANCH   6  42
ATOM     42  C   UNL     1     -44.255 -60.189 -85.475  0.00  0.00    +0.000 C 
BRANCH  42  44
ATOM     43  O   UNL     1     -45.547 -62.270 -84.848  0.00  0.00    +0.000 OA
ATOM     44  C   UNL     1     -45.084 -60.943 -84.498  0.00  0.00    +0.000 C 
ATOM     45  C   UNL     1     -44.446 -62.174 -84.041  0.00  0.00    +0.000 C 
ATOM     46  C   UNL     1     -46.229 -60.190 -83.742  0.00  0.00    +0.000 C 
BRANCH  45  47
ATOM     47  C   UNL     1     -44.560 -62.702 -82.715  0.00  0.00    +0.000 C 
ATOM     48  C   UNL     1     -43.748 -62.110 -81.591  0.00  0.00    +0.000 C 
BRANCH  47  49
ATOM     49  C   UNL     1     -45.708 -63.441 -82.335  0.00  0.00    +0.000 C 
ATOM     50  C   UNL     1     -46.694 -64.073 -82.079  0.00  0.00    +0.000 C 
ATOM     51  C   UNL     1     -47.982 -64.874 -81.873  0.00  0.00    +0.000 C 
ENDBRANCH  47  49
ENDBRANCH  45  47
ENDBRANCH  42  44
BRANCH  42  52
ATOM     52  O   UNL     1     -43.023 -59.641 -85.143  0.00  0.00    +0.000 OA
ATOM     53  H   UNL     1     -42.349 -59.804 -85.835  0.00  0.00    +0.000 HD
ENDBRANCH  42  52
ENDBRANCH   6  42
TORSDOF 12
ENDMDL
MODEL 7
REMARK VINA RESULT:      -5.5     44.493     49.227
REMARK  Name = 101808842_CandidaspongiolideB.pdbqt.pdb
REMARK  12 active torsions:
REMARK  status: ('A' for Active; 'I' for Inactive)
REMARK    1  A    between atoms: C_6  and  C_42
REMARK    2  A    between atoms: C_7  and  O_28
REMARK    3  A    between atoms: C_10  and  O_30
REMARK    4  A    between atoms: C_13  and  O_32
REMARK    5  A    between atoms: C_19  and  O_34
REMARK    6  A    between atoms: C_20  and  O_38
REMARK    7  A    between atoms: C_21  and  O_36
REMARK    8  A    between atoms: O_38  and  C_40
REMARK    9  A    between atoms: C_42  and  C_44
REMARK   10  A    between atoms: C_42  and  O_52
REMARK   11  A    between atoms: C_45  and  C_47
REMARK   12  A    between atoms: C_47  and  C_49
REMARK                            x       y       z     vdW  Elec       q    Type
REMARK                         _______ _______ _______ _____ _____    ______ ____
ROOT
ATOM      1  O   UNL     1     -72.491 -49.104 -67.681  0.00  0.00    +0.000 OA
ATOM      2  O   UNL     1     -69.882 -45.207 -72.703  0.00  0.00    +0.000 OA
ATOM      3  O   UNL     1     -73.222 -46.768 -70.599  0.00  0.00    +0.000 OA
ATOM      4  O   UNL     1     -70.443 -44.457 -70.595  0.00  0.00    +0.000 OA
ATOM      5  O   UNL     1     -68.513 -45.116 -68.449  0.00  0.00    +0.000 OA
ATOM      6  C   UNL     1     -71.782 -47.181 -72.398  0.00  0.00    +0.000 C 
ATOM      7  C   UNL     1     -71.524 -48.504 -70.192  0.00  0.00    +0.000 C 
ATOM      8  C   UNL     1     -72.264 -47.424 -71.010  0.00  0.00    +0.000 C 
ATOM      9  C   UNL     1     -70.821 -46.151 -72.607  0.00  0.00    +0.000 C 
ATOM     10  C   UNL     1     -70.319 -47.893 -69.449  0.00  0.00    +0.000 C 
ATOM     11  C   UNL     1     -70.339 -48.043 -68.030  0.00  0.00    +0.000 C 
ATOM     12  C   UNL     1     -72.328 -48.960 -69.012  0.00  0.00    +0.000 C 
ATOM     13  C   UNL     1     -71.270 -48.601 -67.000  0.00  0.00    +0.000 C 
ATOM     14  C   UNL     1     -71.666 -47.532 -65.972  0.00  0.00    +0.000 C 
ATOM     15  C   UNL     1     -71.404 -46.149 -66.208  0.00  0.00    +0.000 C 
ATOM     16  C   UNL     1     -72.252 -47.789 -64.587  0.00  0.00    +0.000 C 
ATOM     17  C   UNL     1     -69.714 -44.463 -71.576  0.00  0.00    +0.000 C 
ATOM     18  C   UNL     1     -71.110 -44.915 -66.479  0.00  0.00    +0.000 C 
ATOM     19  C   UNL     1     -68.448 -43.696 -71.645  0.00  0.00    +0.000 C 
ATOM     20  C   UNL     1     -69.897 -44.300 -65.992  0.00  0.00    +0.000 C 
ATOM     21  C   UNL     1     -67.827 -43.157 -70.451  0.00  0.00    +0.000 C 
ATOM     22  C   UNL     1     -68.966 -43.487 -66.772  0.00  0.00    +0.000 C 
ATOM     23  C   UNL     1     -68.485 -42.835 -69.194  0.00  0.00    +0.000 C 
ATOM     24  C   UNL     1     -68.647 -43.919 -68.174  0.00  0.00    +0.000 C 
ATOM     25  C   UNL     1     -71.986 -44.220 -67.481  0.00  0.00    +0.000 C 
ATOM     26  C   UNL     1     -67.991 -42.557 -66.053  0.00  0.00    +0.000 C 
ATOM     27  C   UNL     1     -69.200 -41.494 -69.066  0.00  0.00    +0.000 C 
ENDROOT
BRANCH   7  28
ATOM     28  O   UNL     1     -71.089 -49.640 -70.911  0.00  0.00    +0.000 OA
ATOM     29  H   UNL     1     -70.189 -49.840 -70.592  0.00  0.00    +0.000 HD
ENDBRANCH   7  28
BRANCH  10  30
ATOM     30  O   UNL     1     -69.289 -47.264 -70.098  0.00  0.00    +0.000 OA
ATOM     31  H   UNL     1     -68.569 -47.893 -70.314  0.00  0.00    +0.000 HD
ENDBRANCH  10  30
BRANCH  13  32
ATOM     32  O   UNL     1     -70.616 -49.701 -66.372  0.00  0.00    +0.000 OA
ATOM     33  H   UNL     1     -70.329 -49.375 -65.504  0.00  0.00    +0.000 HD
ENDBRANCH  13  32
BRANCH  19  34
ATOM     34  O   UNL     1     -67.725 -43.579 -72.818  0.00  0.00    +0.000 OA
ATOM     35  H   UNL     1     -68.235 -43.167 -73.546  0.00  0.00    +0.000 HD
ENDBRANCH  19  34
BRANCH  21  36
ATOM     36  O   UNL     1     -66.588 -42.572 -70.657  0.00  0.00    +0.000 OA
ATOM     37  C   UNL     1     -65.570 -43.327 -70.050  0.00  0.00    +0.000 C 
ENDBRANCH  21  36
BRANCH  20  38
ATOM     38  O   UNL     1     -69.774 -44.262 -64.583  0.00  0.00    +0.000 OA
BRANCH  38  40
ATOM     39  O   UNL     1     -71.046 -42.341 -64.235  0.00  0.00    +0.000 OA
ATOM     40  C   UNL     1     -70.760 -43.507 -64.033  0.00  0.00    +0.000 C 
ATOM     41  C   UNL     1     -71.560 -44.183 -62.984  0.00  0.00    +0.000 C 
ENDBRANCH  38  40
ENDBRANCH  20  38
BRANCH   6  42
ATOM     42  C   UNL     1     -72.463 -47.840 -73.491  0.00  0.00    +0.000 C 
BRANCH  42  44
ATOM     43  O   UNL     1     -72.521 -48.503 -75.930  0.00  0.00    +0.000 OA
ATOM     44  C   UNL     1     -71.751 -48.254 -74.729  0.00  0.00    +0.000 C 
ATOM     45  C   UNL     1     -71.896 -47.292 -75.816  0.00  0.00    +0.000 C 
ATOM     46  C   UNL     1     -70.616 -49.326 -74.622  0.00  0.00    +0.000 C 
BRANCH  45  47
ATOM     47  C   UNL     1     -70.874 -46.991 -76.774  0.00  0.00    +0.000 C 
ATOM     48  C   UNL     1     -71.047 -47.388 -78.218  0.00  0.00    +0.000 C 
BRANCH  47  49
ATOM     49  C   UNL     1     -69.934 -45.961 -76.517  0.00  0.00    +0.000 C 
ATOM     50  C   UNL     1     -69.107 -45.109 -76.357  0.00  0.00    +0.000 C 
ATOM     51  C   UNL     1     -67.986 -44.071 -76.245  0.00  0.00    +0.000 C 
ENDBRANCH  47  49
ENDBRANCH  45  47
ENDBRANCH  42  44
BRANCH  42  52
ATOM     52  O   UNL     1     -73.815 -48.085 -73.288  0.00  0.00    +0.000 OA
ATOM     53  H   UNL     1     -74.339 -47.958 -74.105  0.00  0.00    +0.000 HD
ENDBRANCH  42  52
ENDBRANCH   6  42
TORSDOF 12
ENDMDL
MODEL 8
REMARK VINA RESULT:      -5.5     15.391     18.353
REMARK  Name = 101808842_CandidaspongiolideB.pdbqt.pdb
REMARK  12 active torsions:
REMARK  status: ('A' for Active; 'I' for Inactive)
REMARK    1  A    between atoms: C_6  and  C_42
REMARK    2  A    between atoms: C_7  and  O_28
REMARK    3  A    between atoms: C_10  and  O_30
REMARK    4  A    between atoms: C_13  and  O_32
REMARK    5  A    between atoms: C_19  and  O_34
REMARK    6  A    between atoms: C_20  and  O_38
REMARK    7  A    between atoms: C_21  and  O_36
REMARK    8  A    between atoms: O_38  and  C_40
REMARK    9  A    between atoms: C_42  and  C_44
REMARK   10  A    between atoms: C_42  and  O_52
REMARK   11  A    between atoms: C_45  and  C_47
REMARK   12  A    between atoms: C_47  and  C_49
REMARK                            x       y       z     vdW  Elec       q    Type
REMARK                         _______ _______ _______ _____ _____    ______ ____
ROOT
ATOM      1  O   UNL     1     -69.367 -57.081 -38.855  0.00  0.00    +0.000 OA
ATOM      2  O   UNL     1     -68.453 -61.587 -33.749  0.00  0.00    +0.000 OA
ATOM      3  O   UNL     1     -71.014 -59.226 -36.174  0.00  0.00    +0.000 OA
ATOM      4  O   UNL     1     -68.889 -62.140 -35.946  0.00  0.00    +0.000 OA
ATOM      5  O   UNL     1     -66.587 -61.926 -37.797  0.00  0.00    +0.000 OA
ATOM      6  C   UNL     1     -69.773 -59.208 -34.190  0.00  0.00    +0.000 C 
ATOM      7  C   UNL     1     -68.914 -57.944 -36.277  0.00  0.00    +0.000 C 
ATOM      8  C   UNL     1     -69.992 -58.828 -35.614  0.00  0.00    +0.000 C 
ATOM      9  C   UNL     1     -69.120 -60.443 -33.914  0.00  0.00    +0.000 C 
ATOM     10  C   UNL     1     -67.801 -58.815 -36.893  0.00  0.00    +0.000 C 
ATOM     11  C   UNL     1     -67.594 -58.638 -38.293  0.00  0.00    +0.000 C 
ATOM     12  C   UNL     1     -69.422 -57.285 -37.523  0.00  0.00    +0.000 C 
ATOM     13  C   UNL     1     -68.219 -57.851 -39.402  0.00  0.00    +0.000 C 
ATOM     14  C   UNL     1     -68.716 -58.773 -40.525  0.00  0.00    +0.000 C 
ATOM     15  C   UNL     1     -68.823 -60.182 -40.327  0.00  0.00    +0.000 C 
ATOM     16  C   UNL     1     -69.033 -58.356 -41.957  0.00  0.00    +0.000 C 
ATOM     17  C   UNL     1     -68.317 -62.329 -34.882  0.00  0.00    +0.000 C 
ATOM     18  C   UNL     1     -68.869 -61.456 -40.085  0.00  0.00    +0.000 C 
ATOM     19  C   UNL     1     -67.290 -63.380 -34.693  0.00  0.00    +0.000 C 
ATOM     20  C   UNL     1     -67.783 -62.336 -40.446  0.00  0.00    +0.000 C 
ATOM     21  C   UNL     1     -66.660 -64.031 -35.826  0.00  0.00    +0.000 C 
ATOM     22  C   UNL     1     -67.184 -63.365 -39.597  0.00  0.00    +0.000 C 
ATOM     23  C   UNL     1     -67.202 -64.160 -37.171  0.00  0.00    +0.000 C 
ATOM     24  C   UNL     1     -66.964 -63.050 -38.147  0.00  0.00    +0.000 C 
ATOM     25  C   UNL     1     -70.012 -61.937 -39.237  0.00  0.00    +0.000 C 
ATOM     26  C   UNL     1     -66.371 -64.490 -40.235  0.00  0.00    +0.000 C 
ATOM     27  C   UNL     1     -68.190 -65.285 -37.455  0.00  0.00    +0.000 C 
ENDROOT
BRANCH   7  28
ATOM     28  O   UNL     1     -68.323 -56.961 -35.452  0.00  0.00    +0.000 OA
ATOM     29  H   UNL     1     -68.174 -57.382 -34.585  0.00  0.00    +0.000 HD
ENDBRANCH   7  28
BRANCH  10  30
ATOM     30  O   UNL     1     -67.046 -59.686 -36.151  0.00  0.00    +0.000 OA
ATOM     31  H   UNL     1     -66.832 -60.494 -36.663  0.00  0.00    +0.000 HD
ENDBRANCH  10  30
BRANCH  13  32
ATOM     32  O   UNL     1     -67.245 -56.931 -39.886  0.00  0.00    +0.000 OA
ATOM     33  H   UNL     1     -67.571 -56.049 -39.642  0.00  0.00    +0.000 HD
ENDBRANCH  13  32
BRANCH  19  34
ATOM     34  O   UNL     1     -66.780 -63.691 -33.447  0.00  0.00    +0.000 OA
ATOM     35  H   UNL     1     -65.808 -63.582 -33.391  0.00  0.00    +0.000 HD
ENDBRANCH  19  34
BRANCH  21  36
ATOM     36  O   UNL     1     -65.635 -64.901 -35.496  0.00  0.00    +0.000 OA
ATOM     37  C   UNL     1     -64.708 -65.007 -36.548  0.00  0.00    +0.000 C 
ENDBRANCH  21  36
BRANCH  20  38
ATOM     38  O   UNL     1     -67.485 -62.377 -41.829  0.00  0.00    +0.000 OA
BRANCH  38  40
ATOM     39  O   UNL     1     -69.114 -63.931 -42.431  0.00  0.00    +0.000 OA
ATOM     40  C   UNL     1     -68.538 -62.863 -42.535  0.00  0.00    +0.000 C 
ATOM     41  C   UNL     1     -69.009 -61.994 -43.641  0.00  0.00    +0.000 C 
ENDBRANCH  38  40
ENDBRANCH  20  38
BRANCH   6  42
ATOM     42  C   UNL     1     -70.418 -58.424 -33.159  0.00  0.00    +0.000 C 
BRANCH  42  44
ATOM     43  O   UNL     1     -69.881 -55.974 -32.843  0.00  0.00    +0.000 OA
ATOM     44  C   UNL     1     -69.704 -57.349 -32.423  0.00  0.00    +0.000 C 
ATOM     45  C   UNL     1     -70.609 -56.409 -31.770  0.00  0.00    +0.000 C 
ATOM     46  C   UNL     1     -68.204 -57.570 -32.033  0.00  0.00    +0.000 C 
BRANCH  45  47
ATOM     47  C   UNL     1     -70.354 -55.780 -30.509  0.00  0.00    +0.000 C 
ATOM     48  C   UNL     1     -70.019 -54.312 -30.447  0.00  0.00    +0.000 C 
BRANCH  47  49
ATOM     49  C   UNL     1     -70.835 -56.363 -29.309  0.00  0.00    +0.000 C 
ATOM     50  C   UNL     1     -71.287 -56.889 -28.331  0.00  0.00    +0.000 C 
ATOM     51  C   UNL     1     -71.957 -57.602 -27.154  0.00  0.00    +0.000 C 
ENDBRANCH  47  49
ENDBRANCH  45  47
ENDBRANCH  42  44
BRANCH  42  52
ATOM     52  O   UNL     1     -71.754 -58.727 -32.931  0.00  0.00    +0.000 OA
ATOM     53  H   UNL     1     -71.861 -59.464 -32.296  0.00  0.00    +0.000 HD
ENDBRANCH  42  52
ENDBRANCH   6  42
TORSDOF 12
ENDMDL
MODEL 9
REMARK VINA RESULT:      -5.4     53.091     57.318
REMARK  Name = 101808842_CandidaspongiolideB.pdbqt.pdb
REMARK  12 active torsions:
REMARK  status: ('A' for Active; 'I' for Inactive)
REMARK    1  A    between atoms: C_6  and  C_42
REMARK    2  A    between atoms: C_7  and  O_28
REMARK    3  A    between atoms: C_10  and  O_30
REMARK    4  A    between atoms: C_13  and  O_32
REMARK    5  A    between atoms: C_19  and  O_34
REMARK    6  A    between atoms: C_20  and  O_38
REMARK    7  A    between atoms: C_21  and  O_36
REMARK    8  A    between atoms: O_38  and  C_40
REMARK    9  A    between atoms: C_42  and  C_44
REMARK   10  A    between atoms: C_42  and  O_52
REMARK   11  A    between atoms: C_45  and  C_47
REMARK   12  A    between atoms: C_47  and  C_49
REMARK                            x       y       z     vdW  Elec       q    Type
REMARK                         _______ _______ _______ _____ _____    ______ ____
ROOT
ATOM      1  O   UNL     1     -62.750 -58.225 -80.011  0.00  0.00    +0.000 OA
ATOM      2  O   UNL     1     -65.417 -64.069 -77.571  0.00  0.00    +0.000 OA
ATOM      3  O   UNL     1     -65.901 -60.086 -78.958  0.00  0.00    +0.000 OA
ATOM      4  O   UNL     1     -65.215 -63.532 -79.805  0.00  0.00    +0.000 OA
ATOM      5  O   UNL     1     -62.500 -63.827 -80.950  0.00  0.00    +0.000 OA
ATOM      6  C   UNL     1     -65.528 -61.367 -77.034  0.00  0.00    +0.000 C 
ATOM      7  C   UNL     1     -63.589 -60.039 -78.112  0.00  0.00    +0.000 C 
ATOM      8  C   UNL     1     -65.075 -60.458 -78.124  0.00  0.00    +0.000 C 
ATOM      9  C   UNL     1     -65.515 -62.770 -77.277  0.00  0.00    +0.000 C 
ATOM     10  C   UNL     1     -62.730 -61.060 -78.884  0.00  0.00    +0.000 C 
ATOM     11  C   UNL     1     -61.991 -60.528 -79.983  0.00  0.00    +0.000 C 
ATOM     12  C   UNL     1     -63.344 -58.829 -78.961  0.00  0.00    +0.000 C 
ATOM     13  C   UNL     1     -61.849 -59.206 -80.669  0.00  0.00    +0.000 C 
ATOM     14  C   UNL     1     -62.216 -59.313 -82.157  0.00  0.00    +0.000 C 
ATOM     15  C   UNL     1     -62.893 -60.460 -82.669  0.00  0.00    +0.000 C 
ATOM     16  C   UNL     1     -61.830 -58.323 -83.251  0.00  0.00    +0.000 C 
ATOM     17  C   UNL     1     -65.169 -64.333 -78.883  0.00  0.00    +0.000 C 
ATOM     18  C   UNL     1     -63.483 -61.543 -83.068  0.00  0.00    +0.000 C 
ATOM     19  C   UNL     1     -64.736 -65.739 -79.056  0.00  0.00    +0.000 C 
ATOM     20  C   UNL     1     -62.741 -62.649 -83.628  0.00  0.00    +0.000 C 
ATOM     21  C   UNL     1     -64.030 -66.169 -80.247  0.00  0.00    +0.000 C 
ATOM     22  C   UNL     1     -62.902 -64.061 -83.285  0.00  0.00    +0.000 C 
ATOM     23  C   UNL     1     -64.066 -65.540 -81.559  0.00  0.00    +0.000 C 
ATOM     24  C   UNL     1     -63.111 -64.423 -81.843  0.00  0.00    +0.000 C 
ATOM     25  C   UNL     1     -64.943 -61.674 -82.739  0.00  0.00    +0.000 C 
ATOM     26  C   UNL     1     -62.386 -65.134 -84.242  0.00  0.00    +0.000 C 
ATOM     27  C   UNL     1     -65.227 -65.864 -82.493  0.00  0.00    +0.000 C 
ENDROOT
BRANCH   7  28
ATOM     28  O   UNL     1     -63.013 -59.826 -76.840  0.00  0.00    +0.000 OA
ATOM     29  H   UNL     1     -63.010 -58.861 -76.697  0.00  0.00    +0.000 HD
ENDBRANCH   7  28
BRANCH  10  30
ATOM     30  O   UNL     1     -62.661 -62.384 -78.535  0.00  0.00    +0.000 OA
ATOM     31  H   UNL     1     -63.483 -62.677 -78.089  0.00  0.00    +0.000 HD
ENDBRANCH  10  30
BRANCH  13  32
ATOM     32  O   UNL     1     -60.503 -58.770 -80.502  0.00  0.00    +0.000 OA
ATOM     33  H   UNL     1     -60.487 -58.280 -79.665  0.00  0.00    +0.000 HD
ENDBRANCH  13  32
BRANCH  19  34
ATOM     34  O   UNL     1     -64.851 -66.672 -78.042  0.00  0.00    +0.000 OA
ATOM     35  H   UNL     1     -64.693 -67.590 -78.344  0.00  0.00    +0.000 HD
ENDBRANCH  19  34
BRANCH  21  36
ATOM     36  O   UNL     1     -63.581 -67.479 -80.212  0.00  0.00    +0.000 OA
ATOM     37  C   UNL     1     -62.177 -67.530 -80.247  0.00  0.00    +0.000 C 
ENDBRANCH  21  36
BRANCH  20  38
ATOM     38  O   UNL     1     -62.009 -62.342 -84.799  0.00  0.00    +0.000 OA
BRANCH  38  40
ATOM     39  O   UNL     1     -64.007 -62.206 -85.992  0.00  0.00    +0.000 OA
ATOM     40  C   UNL     1     -62.808 -62.399 -85.896  0.00  0.00    +0.000 C 
ATOM     41  C   UNL     1     -62.133 -62.826 -87.146  0.00  0.00    +0.000 C 
ENDBRANCH  38  40
ENDBRANCH  20  38
BRANCH   6  42
ATOM     42  C   UNL     1     -66.163 -60.788 -75.871  0.00  0.00    +0.000 C 
BRANCH  42  44
ATOM     43  O   UNL     1     -64.991 -62.212 -74.141  0.00  0.00    +0.000 OA
ATOM     44  C   UNL     1     -66.167 -61.472 -74.551  0.00  0.00    +0.000 C 
ATOM     45  C   UNL     1     -65.155 -60.950 -73.638  0.00  0.00    +0.000 C 
ATOM     46  C   UNL     1     -67.443 -62.268 -74.120  0.00  0.00    +0.000 C 
BRANCH  45  47
ATOM     47  C   UNL     1     -65.327 -60.830 -72.221  0.00  0.00    +0.000 C 
ATOM     48  C   UNL     1     -66.393 -59.922 -71.661  0.00  0.00    +0.000 C 
BRANCH  47  49
ATOM     49  C   UNL     1     -64.852 -61.845 -71.354  0.00  0.00    +0.000 C 
ATOM     50  C   UNL     1     -64.386 -62.683 -70.634  0.00  0.00    +0.000 C 
ATOM     51  C   UNL     1     -63.681 -63.724 -69.761  0.00  0.00    +0.000 C 
ENDBRANCH  47  49
ENDBRANCH  45  47
ENDBRANCH  42  44
BRANCH  42  52
ATOM     52  O   UNL     1     -66.738 -59.539 -76.068  0.00  0.00    +0.000 OA
ATOM     53  H   UNL     1     -66.090 -58.883 -76.397  0.00  0.00    +0.000 HD
ENDBRANCH  42  52
ENDBRANCH   6  42
TORSDOF 12
ENDMDL
