MODEL 1
REMARK VINA RESULT:      -4.5      0.000      0.000
REMARK  Name = 102471178_CandidaspongiolideCore.pdbqt.pdb
REMARK  13 active torsions:
REMARK  status: ('A' for Active; 'I' for Inactive)
REMARK    1  A    between atoms: C_6  and  C_39
REMARK    2  A    between atoms: C_8  and  O_27
REMARK    3  A    between atoms: C_8  and  C_51
REMARK    4  A    between atoms: C_10  and  O_29
REMARK    5  A    between atoms: C_15  and  O_31
REMARK    6  A    between atoms: C_16  and  O_33
REMARK    7  A    between atoms: C_21  and  O_35
REMARK    8  A    between atoms: O_35  and  C_37
REMARK    9  A    between atoms: C_39  and  C_41
REMARK   10  A    between atoms: C_39  and  O_49
REMARK   11  A    between atoms: C_42  and  C_44
REMARK   12  A    between atoms: C_44  and  C_46
REMARK   13  A    between atoms: C_51  and  O_52
REMARK                            x       y       z     vdW  Elec       q    Type
REMARK                         _______ _______ _______ _____ _____    ______ ____
ROOT
ATOM      1  O   UNL     1     -63.619 -44.262 -56.420  0.00  0.00    +0.000 OA
ATOM      2  O   UNL     1     -65.442 -45.649 -56.263  0.00  0.00    +0.000 OA
ATOM      3  O   UNL     1     -68.860 -48.399 -53.983  0.00  0.00    +0.000 OA
ATOM      4  O   UNL     1     -64.387 -42.696 -57.855  0.00  0.00    +0.000 OA
ATOM      5  O   UNL     1     -66.678 -44.900 -59.365  0.00  0.00    +0.000 OA
ATOM      6  C   UNL     1     -63.961 -45.348 -54.401  0.00  0.00    +0.000 C 
ATOM      7  C   UNL     1     -64.191 -46.578 -53.726  0.00  0.00    +0.000 C 
ATOM      8  C   UNL     1     -64.273 -47.834 -52.974  0.00  0.00    +0.000 C 
ATOM      9  C   UNL     1     -64.449 -45.115 -55.786  0.00  0.00    +0.000 C 
ATOM     10  C   UNL     1     -65.643 -48.050 -52.370  0.00  0.00    +0.000 C 
ATOM     11  C   UNL     1     -66.868 -47.777 -53.036  0.00  0.00    +0.000 C 
ATOM     12  C   UNL     1     -68.066 -47.484 -53.793  0.00  0.00    +0.000 C 
ATOM     13  C   UNL     1     -64.030 -43.847 -57.633  0.00  0.00    +0.000 C 
ATOM     14  C   UNL     1     -68.292 -46.118 -54.356  0.00  0.00    +0.000 C 
ATOM     15  C   UNL     1     -63.734 -44.758 -58.767  0.00  0.00    +0.000 C 
ATOM     16  C   UNL     1     -64.005 -46.181 -58.770  0.00  0.00    +0.000 C 
ATOM     17  C   UNL     1     -65.255 -46.806 -59.185  0.00  0.00    +0.000 C 
ATOM     18  C   UNL     1     -69.010 -45.971 -55.567  0.00  0.00    +0.000 C 
ATOM     19  C   UNL     1     -67.630 -46.750 -58.222  0.00  0.00    +0.000 C 
ATOM     20  C   UNL     1     -67.542 -44.894 -53.849  0.00  0.00    +0.000 C 
ATOM     21  C   UNL     1     -68.855 -45.998 -57.972  0.00  0.00    +0.000 C 
ATOM     22  C   UNL     1     -66.536 -46.063 -58.982  0.00  0.00    +0.000 C 
ATOM     23  C   UNL     1     -69.599 -45.914 -56.723  0.00  0.00    +0.000 C 
ATOM     24  C   UNL     1     -65.264 -48.037 -60.086  0.00  0.00    +0.000 C 
ATOM     25  C   UNL     1     -67.394 -48.052 -57.469  0.00  0.00    +0.000 C 
ATOM     26  C   UNL     1     -71.091 -45.704 -56.693  0.00  0.00    +0.000 C 
ENDROOT
BRANCH   8  27
ATOM     27  O   UNL     1     -63.321 -47.712 -51.914  0.00  0.00    +0.000 OA
ATOM     28  H   UNL     1     -62.502 -48.103 -52.280  0.00  0.00    +0.000 HD
ENDBRANCH   8  27
BRANCH  10  29
ATOM     29  O   UNL     1     -65.688 -48.601 -51.099  0.00  0.00    +0.000 OA
ATOM     30  H   UNL     1     -64.799 -48.732 -50.721  0.00  0.00    +0.000 HD
ENDBRANCH  10  29
BRANCH  15  31
ATOM     31  O   UNL     1     -63.654 -44.205 -60.035  0.00  0.00    +0.000 OA
ATOM     32  H   UNL     1     -64.520 -44.269 -60.492  0.00  0.00    +0.000 HD
ENDBRANCH  15  31
BRANCH  16  33
ATOM     33  O   UNL     1     -62.889 -46.993 -58.864  0.00  0.00    +0.000 OA
ATOM     34  C   UNL     1     -61.762 -46.289 -58.403  0.00  0.00    +0.000 C 
ENDBRANCH  16  33
BRANCH  21  35
ATOM     35  O   UNL     1     -69.447 -45.440 -59.133  0.00  0.00    +0.000 OA
BRANCH  35  37
ATOM     36  O   UNL     1     -70.645 -47.334 -59.804  0.00  0.00    +0.000 OA
ATOM     37  C   UNL     1     -69.909 -46.383 -60.000  0.00  0.00    +0.000 C 
ATOM     38  C   UNL     1     -69.472 -46.195 -61.408  0.00  0.00    +0.000 C 
ENDBRANCH  35  37
ENDBRANCH  21  35
BRANCH   6  39
ATOM     39  C   UNL     1     -63.311 -44.292 -53.659  0.00  0.00    +0.000 C 
BRANCH  39  41
ATOM     40  O   UNL     1     -63.557 -41.860 -52.934  0.00  0.00    +0.000 OA
ATOM     41  C   UNL     1     -64.115 -43.188 -53.064  0.00  0.00    +0.000 C 
ATOM     42  C   UNL     1     -64.355 -42.107 -54.016  0.00  0.00    +0.000 C 
ATOM     43  C   UNL     1     -65.034 -43.492 -51.828  0.00  0.00    +0.000 C 
BRANCH  42  44
ATOM     44  C   UNL     1     -65.578 -41.370 -54.113  0.00  0.00    +0.000 C 
ATOM     45  C   UNL     1     -65.691 -39.998 -53.489  0.00  0.00    +0.000 C 
BRANCH  44  46
ATOM     46  C   UNL     1     -66.514 -41.661 -55.138  0.00  0.00    +0.000 C 
ATOM     47  C   UNL     1     -67.319 -41.948 -55.979  0.00  0.00    +0.000 C 
ATOM     48  C   UNL     1     -68.374 -42.366 -57.012  0.00  0.00    +0.000 C 
ENDBRANCH  44  46
ENDBRANCH  42  44
ENDBRANCH  39  41
BRANCH  39  49
ATOM     49  O   UNL     1     -61.928 -44.331 -53.595  0.00  0.00    +0.000 OA
ATOM     50  H   UNL     1     -61.512 -43.491 -53.323  0.00  0.00    +0.000 HD
ENDBRANCH  39  49
ENDBRANCH   6  39
BRANCH   8  51
ATOM     51  C   UNL     1     -63.885 -48.994 -53.794  0.00  0.00    +0.000 C 
BRANCH  51  52
ATOM     52  O   UNL     1     -63.538 -50.070 -54.500  0.00  0.00    +0.000 OA
ATOM     53  H   UNL     1     -64.328 -50.527 -54.853  0.00  0.00    +0.000 HD
ENDBRANCH  51  52
ENDBRANCH   8  51
TORSDOF 13
ENDMDL
MODEL 2
REMARK VINA RESULT:      -4.4     11.472     14.501
REMARK  Name = 102471178_CandidaspongiolideCore.pdbqt.pdb
REMARK  13 active torsions:
REMARK  status: ('A' for Active; 'I' for Inactive)
REMARK    1  A    between atoms: C_6  and  C_39
REMARK    2  A    between atoms: C_8  and  O_27
REMARK    3  A    between atoms: C_8  and  C_51
REMARK    4  A    between atoms: C_10  and  O_29
REMARK    5  A    between atoms: C_15  and  O_31
REMARK    6  A    between atoms: C_16  and  O_33
REMARK    7  A    between atoms: C_21  and  O_35
REMARK    8  A    between atoms: O_35  and  C_37
REMARK    9  A    between atoms: C_39  and  C_41
REMARK   10  A    between atoms: C_39  and  O_49
REMARK   11  A    between atoms: C_42  and  C_44
REMARK   12  A    between atoms: C_44  and  C_46
REMARK   13  A    between atoms: C_51  and  O_52
REMARK                            x       y       z     vdW  Elec       q    Type
REMARK                         _______ _______ _______ _____ _____    ______ ____
ROOT
ATOM      1  O   UNL     1     -60.619 -56.882 -55.845  0.00  0.00    +0.000 OA
ATOM      2  O   UNL     1     -61.004 -57.500 -53.667  0.00  0.00    +0.000 OA
ATOM      3  O   UNL     1     -59.816 -58.729 -49.028  0.00  0.00    +0.000 OA
ATOM      4  O   UNL     1     -62.099 -55.194 -56.087  0.00  0.00    +0.000 OA
ATOM      5  O   UNL     1     -64.263 -56.458 -53.615  0.00  0.00    +0.000 OA
ATOM      6  C   UNL     1     -58.819 -57.698 -54.634  0.00  0.00    +0.000 C 
ATOM      7  C   UNL     1     -58.299 -58.735 -53.811  0.00  0.00    +0.000 C 
ATOM      8  C   UNL     1     -57.670 -59.847 -53.093  0.00  0.00    +0.000 C 
ATOM      9  C   UNL     1     -60.264 -57.351 -54.631  0.00  0.00    +0.000 C 
ATOM     10  C   UNL     1     -57.438 -59.526 -51.632  0.00  0.00    +0.000 C 
ATOM     11  C   UNL     1     -58.369 -58.847 -50.801  0.00  0.00    +0.000 C 
ATOM     12  C   UNL     1     -59.379 -58.161 -50.023  0.00  0.00    +0.000 C 
ATOM     13  C   UNL     1     -61.868 -56.388 -55.933  0.00  0.00    +0.000 C 
ATOM     14  C   UNL     1     -59.895 -56.828 -50.459  0.00  0.00    +0.000 C 
ATOM     15  C   UNL     1     -62.947 -57.382 -56.155  0.00  0.00    +0.000 C 
ATOM     16  C   UNL     1     -63.105 -58.607 -55.398  0.00  0.00    +0.000 C 
ATOM     17  C   UNL     1     -63.854 -58.745 -54.155  0.00  0.00    +0.000 C 
ATOM     18  C   UNL     1     -61.235 -56.470 -50.174  0.00  0.00    +0.000 C 
ATOM     19  C   UNL     1     -63.508 -57.790 -51.802  0.00  0.00    +0.000 C 
ATOM     20  C   UNL     1     -59.144 -55.947 -51.447  0.00  0.00    +0.000 C 
ATOM     21  C   UNL     1     -63.523 -56.634 -50.912  0.00  0.00    +0.000 C 
ATOM     22  C   UNL     1     -63.930 -57.578 -53.224  0.00  0.00    +0.000 C 
ATOM     23  C   UNL     1     -62.495 -56.241 -49.959  0.00  0.00    +0.000 C 
ATOM     24  C   UNL     1     -64.804 -59.917 -53.929  0.00  0.00    +0.000 C 
ATOM     25  C   UNL     1     -62.803 -59.062 -51.351  0.00  0.00    +0.000 C 
ATOM     26  C   UNL     1     -62.823 -55.498 -48.689  0.00  0.00    +0.000 C 
ENDROOT
BRANCH   8  27
ATOM     27  O   UNL     1     -56.402 -60.046 -53.722  0.00  0.00    +0.000 OA
ATOM     28  H   UNL     1     -56.343 -59.323 -54.380  0.00  0.00    +0.000 HD
ENDBRANCH   8  27
BRANCH  10  29
ATOM     29  O   UNL     1     -56.254 -59.978 -51.070  0.00  0.00    +0.000 OA
ATOM     30  H   UNL     1     -56.028 -60.881 -51.362  0.00  0.00    +0.000 HD
ENDBRANCH  10  29
BRANCH  15  31
ATOM     31  O   UNL     1     -64.119 -56.940 -56.749  0.00  0.00    +0.000 OA
ATOM     32  H   UNL     1     -63.924 -56.490 -57.599  0.00  0.00    +0.000 HD
ENDBRANCH  15  31
BRANCH  16  33
ATOM     33  O   UNL     1     -62.970 -59.773 -56.129  0.00  0.00    +0.000 OA
ATOM     34  C   UNL     1     -61.700 -60.327 -55.889  0.00  0.00    +0.000 C 
ENDBRANCH  16  33
BRANCH  21  35
ATOM     35  O   UNL     1     -64.759 -55.938 -50.877  0.00  0.00    +0.000 OA
BRANCH  35  37
ATOM     36  O   UNL     1     -65.828 -57.275 -49.283  0.00  0.00    +0.000 OA
ATOM     37  C   UNL     1     -65.770 -56.677 -50.342  0.00  0.00    +0.000 C 
ATOM     38  C   UNL     1     -67.002 -56.727 -51.171  0.00  0.00    +0.000 C 
ENDBRANCH  35  37
ENDBRANCH  21  35
BRANCH   6  39
ATOM     39  C   UNL     1     -57.874 -56.929 -55.412  0.00  0.00    +0.000 C 
BRANCH  39  41
ATOM     40  O   UNL     1     -57.836 -58.708 -57.238  0.00  0.00    +0.000 OA
ATOM     41  C   UNL     1     -57.298 -57.495 -56.664  0.00  0.00    +0.000 C 
ATOM     42  C   UNL     1     -58.268 -57.519 -57.755  0.00  0.00    +0.000 C 
ATOM     43  C   UNL     1     -55.741 -57.465 -56.870  0.00  0.00    +0.000 C 
BRANCH  42  44
ATOM     44  C   UNL     1     -57.953 -57.243 -59.124  0.00  0.00    +0.000 C 
ATOM     45  C   UNL     1     -57.405 -58.336 -60.013  0.00  0.00    +0.000 C 
BRANCH  44  46
ATOM     46  C   UNL     1     -58.551 -56.146 -59.794  0.00  0.00    +0.000 C 
ATOM     47  C   UNL     1     -59.081 -55.207 -60.319  0.00  0.00    +0.000 C 
ATOM     48  C   UNL     1     -59.784 -53.986 -60.926  0.00  0.00    +0.000 C 
ENDBRANCH  44  46
ENDBRANCH  42  44
ENDBRANCH  39  41
BRANCH  39  49
ATOM     49  O   UNL     1     -57.495 -55.699 -54.901  0.00  0.00    +0.000 OA
ATOM     50  H   UNL     1     -56.927 -55.749 -54.108  0.00  0.00    +0.000 HD
ENDBRANCH  39  49
ENDBRANCH   6  39
BRANCH   8  51
ATOM     51  C   UNL     1     -58.438 -61.096 -53.228  0.00  0.00    +0.000 C 
BRANCH  51  52
ATOM     52  O   UNL     1     -59.170 -62.203 -53.356  0.00  0.00    +0.000 OA
ATOM     53  H   UNL     1     -58.613 -62.962 -53.624  0.00  0.00    +0.000 HD
ENDBRANCH  51  52
ENDBRANCH   8  51
TORSDOF 13
ENDMDL
MODEL 3
REMARK VINA RESULT:      -4.3     25.402     30.128
REMARK  Name = 102471178_CandidaspongiolideCore.pdbqt.pdb
REMARK  13 active torsions:
REMARK  status: ('A' for Active; 'I' for Inactive)
REMARK    1  A    between atoms: C_6  and  C_39
REMARK    2  A    between atoms: C_8  and  O_27
REMARK    3  A    between atoms: C_8  and  C_51
REMARK    4  A    between atoms: C_10  and  O_29
REMARK    5  A    between atoms: C_15  and  O_31
REMARK    6  A    between atoms: C_16  and  O_33
REMARK    7  A    between atoms: C_21  and  O_35
REMARK    8  A    between atoms: O_35  and  C_37
REMARK    9  A    between atoms: C_39  and  C_41
REMARK   10  A    between atoms: C_39  and  O_49
REMARK   11  A    between atoms: C_42  and  C_44
REMARK   12  A    between atoms: C_44  and  C_46
REMARK   13  A    between atoms: C_51  and  O_52
REMARK                            x       y       z     vdW  Elec       q    Type
REMARK                         _______ _______ _______ _____ _____    ______ ____
ROOT
ATOM      1  O   UNL     1     -75.433 -57.769 -29.261  0.00  0.00    +0.000 OA
ATOM      2  O   UNL     1     -73.685 -56.728 -30.326  0.00  0.00    +0.000 OA
ATOM      3  O   UNL     1     -69.865 -53.624 -30.793  0.00  0.00    +0.000 OA
ATOM      4  O   UNL     1     -75.039 -59.929 -29.788  0.00  0.00    +0.000 OA
ATOM      5  O   UNL     1     -73.329 -59.113 -32.754  0.00  0.00    +0.000 OA
ATOM      6  C   UNL     1     -74.583 -55.845 -28.286  0.00  0.00    +0.000 C 
ATOM      7  C   UNL     1     -74.217 -54.480 -28.448  0.00  0.00    +0.000 C 
ATOM      8  C   UNL     1     -73.974 -53.037 -28.524  0.00  0.00    +0.000 C 
ATOM      9  C   UNL     1     -74.490 -56.816 -29.408  0.00  0.00    +0.000 C 
ATOM     10  C   UNL     1     -72.498 -52.704 -28.493  0.00  0.00    +0.000 C 
ATOM     11  C   UNL     1     -71.497 -53.425 -29.196  0.00  0.00    +0.000 C 
ATOM     12  C   UNL     1     -70.544 -54.207 -29.955  0.00  0.00    +0.000 C 
ATOM     13  C   UNL     1     -75.359 -58.796 -30.128  0.00  0.00    +0.000 C 
ATOM     14  C   UNL     1     -70.437 -55.683 -29.745  0.00  0.00    +0.000 C 
ATOM     15  C   UNL     1     -75.987 -58.574 -31.454  0.00  0.00    +0.000 C 
ATOM     16  C   UNL     1     -75.775 -57.402 -32.278  0.00  0.00    +0.000 C 
ATOM     17  C   UNL     1     -74.710 -57.235 -33.259  0.00  0.00    +0.000 C 
ATOM     18  C   UNL     1     -70.077 -56.519 -30.830  0.00  0.00    +0.000 C 
ATOM     19  C   UNL     1     -72.161 -57.068 -33.046  0.00  0.00    +0.000 C 
ATOM     20  C   UNL     1     -70.977 -56.370 -28.499  0.00  0.00    +0.000 C 
ATOM     21  C   UNL     1     -70.890 -57.721 -32.754  0.00  0.00    +0.000 C 
ATOM     22  C   UNL     1     -73.399 -57.912 -33.024  0.00  0.00    +0.000 C 
ATOM     23  C   UNL     1     -69.828 -57.235 -31.884  0.00  0.00    +0.000 C 
ATOM     24  C   UNL     1     -74.991 -56.658 -34.643  0.00  0.00    +0.000 C 
ATOM     25  C   UNL     1     -72.224 -55.547 -33.066  0.00  0.00    +0.000 C 
ATOM     26  C   UNL     1     -68.380 -57.575 -32.123  0.00  0.00    +0.000 C 
ENDROOT
BRANCH   8  27
ATOM     27  O   UNL     1     -74.592 -52.479 -27.361  0.00  0.00    +0.000 OA
ATOM     28  H   UNL     1     -74.638 -53.226 -26.731  0.00  0.00    +0.000 HD
ENDBRANCH   8  27
BRANCH  10  29
ATOM     29  O   UNL     1     -72.122 -51.586 -27.765  0.00  0.00    +0.000 OA
ATOM     30  H   UNL     1     -72.638 -51.489 -26.944  0.00  0.00    +0.000 HD
ENDBRANCH  10  29
BRANCH  15  31
ATOM     31  O   UNL     1     -76.395 -59.689 -32.169  0.00  0.00    +0.000 OA
ATOM     32  H   UNL     1     -75.793 -60.445 -31.998  0.00  0.00    +0.000 HD
ENDBRANCH  15  31
BRANCH  16  33
ATOM     33  O   UNL     1     -76.901 -56.630 -32.504  0.00  0.00    +0.000 OA
ATOM     34  C   UNL     1     -76.849 -55.484 -31.690  0.00  0.00    +0.000 C 
ENDBRANCH  16  33
BRANCH  21  35
ATOM     35  O   UNL     1     -70.623 -58.865 -33.548  0.00  0.00    +0.000 OA
BRANCH  35  37
ATOM     36  O   UNL     1     -69.665 -57.784 -35.387  0.00  0.00    +0.000 OA
ATOM     37  C   UNL     1     -70.437 -58.567 -34.863  0.00  0.00    +0.000 C 
ATOM     38  C   UNL     1     -71.285 -59.348 -35.800  0.00  0.00    +0.000 C 
ENDBRANCH  35  37
ENDBRANCH  21  35
BRANCH   6  39
ATOM     39  C   UNL     1     -74.968 -56.279 -26.962  0.00  0.00    +0.000 C 
BRANCH  39  41
ATOM     40  O   UNL     1     -72.958 -57.811 -26.623  0.00  0.00    +0.000 OA
ATOM     41  C   UNL     1     -74.343 -57.488 -26.358  0.00  0.00    +0.000 C 
ATOM     42  C   UNL     1     -73.241 -57.150 -25.461  0.00  0.00    +0.000 C 
ATOM     43  C   UNL     1     -75.179 -58.814 -26.264  0.00  0.00    +0.000 C 
BRANCH  42  44
ATOM     44  C   UNL     1     -72.959 -57.829 -24.233  0.00  0.00    +0.000 C 
ATOM     45  C   UNL     1     -72.065 -59.047 -24.226  0.00  0.00    +0.000 C 
BRANCH  44  46
ATOM     46  C   UNL     1     -73.099 -57.159 -22.991  0.00  0.00    +0.000 C 
ATOM     47  C   UNL     1     -73.241 -56.556 -21.964  0.00  0.00    +0.000 C 
ATOM     48  C   UNL     1     -73.468 -55.741 -20.685  0.00  0.00    +0.000 C 
ENDBRANCH  44  46
ENDBRANCH  42  44
ENDBRANCH  39  41
BRANCH  39  49
ATOM     49  O   UNL     1     -75.974 -55.562 -26.335  0.00  0.00    +0.000 OA
ATOM     50  H   UNL     1     -76.656 -55.210 -26.939  0.00  0.00    +0.000 HD
ENDBRANCH  39  49
ENDBRANCH   6  39
BRANCH   8  51
ATOM     51  C   UNL     1     -74.612 -52.431 -29.704  0.00  0.00    +0.000 C 
BRANCH  51  52
ATOM     52  O   UNL     1     -75.229 -51.889 -30.754  0.00  0.00    +0.000 OA
ATOM     53  H   UNL     1     -74.586 -51.650 -31.453  0.00  0.00    +0.000 HD
ENDBRANCH  51  52
ENDBRANCH   8  51
TORSDOF 13
ENDMDL
MODEL 4
REMARK VINA RESULT:      -4.3     23.693     28.037
REMARK  Name = 102471178_CandidaspongiolideCore.pdbqt.pdb
REMARK  13 active torsions:
REMARK  status: ('A' for Active; 'I' for Inactive)
REMARK    1  A    between atoms: C_6  and  C_39
REMARK    2  A    between atoms: C_8  and  O_27
REMARK    3  A    between atoms: C_8  and  C_51
REMARK    4  A    between atoms: C_10  and  O_29
REMARK    5  A    between atoms: C_15  and  O_31
REMARK    6  A    between atoms: C_16  and  O_33
REMARK    7  A    between atoms: C_21  and  O_35
REMARK    8  A    between atoms: O_35  and  C_37
REMARK    9  A    between atoms: C_39  and  C_41
REMARK   10  A    between atoms: C_39  and  O_49
REMARK   11  A    between atoms: C_42  and  C_44
REMARK   12  A    between atoms: C_44  and  C_46
REMARK   13  A    between atoms: C_51  and  O_52
REMARK                            x       y       z     vdW  Elec       q    Type
REMARK                         _______ _______ _______ _____ _____    ______ ____
ROOT
ATOM      1  O   UNL     1     -65.549 -56.885 -80.769  0.00  0.00    +0.000 OA
ATOM      2  O   UNL     1     -65.705 -58.837 -79.569  0.00  0.00    +0.000 OA
ATOM      3  O   UNL     1     -64.312 -63.312 -77.997  0.00  0.00    +0.000 OA
ATOM      4  O   UNL     1     -65.992 -55.354 -79.169  0.00  0.00    +0.000 OA
ATOM      5  O   UNL     1     -67.896 -57.606 -77.247  0.00  0.00    +0.000 OA
ATOM      6  C   UNL     1     -64.187 -58.646 -81.416  0.00  0.00    +0.000 C 
ATOM      7  C   UNL     1     -64.093 -60.019 -81.776  0.00  0.00    +0.000 C 
ATOM      8  C   UNL     1     -63.968 -61.381 -82.302  0.00  0.00    +0.000 C 
ATOM      9  C   UNL     1     -65.222 -58.158 -80.466  0.00  0.00    +0.000 C 
ATOM     10  C   UNL     1     -63.293 -62.313 -81.319  0.00  0.00    +0.000 C 
ATOM     11  C   UNL     1     -63.548 -62.330 -79.922  0.00  0.00    +0.000 C 
ATOM     12  C   UNL     1     -63.879 -62.288 -78.513  0.00  0.00    +0.000 C 
ATOM     13  C   UNL     1     -66.365 -56.272 -79.891  0.00  0.00    +0.000 C 
ATOM     14  C   UNL     1     -63.736 -61.017 -77.739  0.00  0.00    +0.000 C 
ATOM     15  C   UNL     1     -67.815 -56.538 -80.057  0.00  0.00    +0.000 C 
ATOM     16  C   UNL     1     -68.397 -57.855 -80.218  0.00  0.00    +0.000 C 
ATOM     17  C   UNL     1     -68.820 -58.733 -79.135  0.00  0.00    +0.000 C 
ATOM     18  C   UNL     1     -64.616 -60.753 -76.660  0.00  0.00    +0.000 C 
ATOM     19  C   UNL     1     -67.537 -59.952 -77.281  0.00  0.00    +0.000 C 
ATOM     20  C   UNL     1     -62.882 -59.857 -78.228  0.00  0.00    +0.000 C 
ATOM     21  C   UNL     1     -66.774 -59.879 -76.039  0.00  0.00    +0.000 C 
ATOM     22  C   UNL     1     -68.094 -58.674 -77.830  0.00  0.00    +0.000 C 
ATOM     23  C   UNL     1     -65.507 -60.534 -75.743  0.00  0.00    +0.000 C 
ATOM     24  C   UNL     1     -70.154 -59.472 -79.190  0.00  0.00    +0.000 C 
ATOM     25  C   UNL     1     -67.486 -61.230 -78.107  0.00  0.00    +0.000 C 
ATOM     26  C   UNL     1     -65.131 -60.951 -74.345  0.00  0.00    +0.000 C 
ENDROOT
BRANCH   8  27
ATOM     27  O   UNL     1     -63.145 -61.272 -83.465  0.00  0.00    +0.000 OA
ATOM     28  H   UNL     1     -63.439 -60.442 -83.893  0.00  0.00    +0.000 HD
ENDBRANCH   8  27
BRANCH  10  29
ATOM     29  O   UNL     1     -62.406 -63.241 -81.842  0.00  0.00    +0.000 OA
ATOM     30  H   UNL     1     -62.480 -63.317 -82.811  0.00  0.00    +0.000 HD
ENDBRANCH  10  29
BRANCH  15  31
ATOM     31  O   UNL     1     -68.704 -55.594 -79.565  0.00  0.00    +0.000 OA
ATOM     32  H   UNL     1     -69.339 -56.011 -78.945  0.00  0.00    +0.000 HD
ENDBRANCH  15  31
BRANCH  16  33
ATOM     33  O   UNL     1     -69.030 -58.075 -81.428  0.00  0.00    +0.000 OA
ATOM     34  C   UNL     1     -68.199 -58.856 -82.251  0.00  0.00    +0.000 C 
ENDBRANCH  16  33
BRANCH  21  35
ATOM     35  O   UNL     1     -67.450 -59.233 -74.974  0.00  0.00    +0.000 OA
BRANCH  35  37
ATOM     36  O   UNL     1     -68.665 -61.071 -74.189  0.00  0.00    +0.000 OA
ATOM     37  C   UNL     1     -68.551 -59.914 -74.552  0.00  0.00    +0.000 C 
ATOM     38  C   UNL     1     -69.794 -59.103 -74.494  0.00  0.00    +0.000 C 
ENDBRANCH  35  37
ENDBRANCH  21  35
BRANCH   6  39
ATOM     39  C   UNL     1     -63.181 -57.750 -81.939  0.00  0.00    +0.000 C 
BRANCH  39  41
ATOM     40  O   UNL     1     -61.104 -58.587 -80.721  0.00  0.00    +0.000 OA
ATOM     41  C   UNL     1     -61.934 -57.490 -81.168  0.00  0.00    +0.000 C 
ATOM     42  C   UNL     1     -60.742 -57.951 -81.875  0.00  0.00    +0.000 C 
ATOM     43  C   UNL     1     -61.929 -56.356 -80.082  0.00  0.00    +0.000 C 
BRANCH  42  44
ATOM     44  C   UNL     1     -59.487 -57.262 -81.882  0.00  0.00    +0.000 C 
ATOM     45  C   UNL     1     -58.241 -57.949 -81.372  0.00  0.00    +0.000 C 
BRANCH  44  46
ATOM     46  C   UNL     1     -59.274 -56.162 -82.749  0.00  0.00    +0.000 C 
ATOM     47  C   UNL     1     -59.064 -55.211 -83.449  0.00  0.00    +0.000 C 
ATOM     48  C   UNL     1     -58.743 -53.975 -84.300  0.00  0.00    +0.000 C 
ENDBRANCH  44  46
ENDBRANCH  42  44
ENDBRANCH  39  41
BRANCH  39  49
ATOM     49  O   UNL     1     -63.471 -57.111 -83.134  0.00  0.00    +0.000 OA
ATOM     50  H   UNL     1     -62.866 -57.334 -83.868  0.00  0.00    +0.000 HD
ENDBRANCH  39  49
ENDBRANCH   6  39
BRANCH   8  51
ATOM     51  C   UNL     1     -65.267 -61.932 -82.722  0.00  0.00    +0.000 C 
BRANCH  51  52
ATOM     52  O   UNL     1     -66.461 -62.414 -83.066  0.00  0.00    +0.000 OA
ATOM     53  H   UNL     1     -66.389 -63.339 -83.375  0.00  0.00    +0.000 HD
ENDBRANCH  51  52
ENDBRANCH   8  51
TORSDOF 13
ENDMDL
MODEL 5
REMARK VINA RESULT:      -4.3     20.999     25.484
REMARK  Name = 102471178_CandidaspongiolideCore.pdbqt.pdb
REMARK  13 active torsions:
REMARK  status: ('A' for Active; 'I' for Inactive)
REMARK    1  A    between atoms: C_6  and  C_39
REMARK    2  A    between atoms: C_8  and  O_27
REMARK    3  A    between atoms: C_8  and  C_51
REMARK    4  A    between atoms: C_10  and  O_29
REMARK    5  A    between atoms: C_15  and  O_31
REMARK    6  A    between atoms: C_16  and  O_33
REMARK    7  A    between atoms: C_21  and  O_35
REMARK    8  A    between atoms: O_35  and  C_37
REMARK    9  A    between atoms: C_39  and  C_41
REMARK   10  A    between atoms: C_39  and  O_49
REMARK   11  A    between atoms: C_42  and  C_44
REMARK   12  A    between atoms: C_44  and  C_46
REMARK   13  A    between atoms: C_51  and  O_52
REMARK                            x       y       z     vdW  Elec       q    Type
REMARK                         _______ _______ _______ _____ _____    ______ ____
ROOT
ATOM      1  O   UNL     1     -65.316 -64.367 -71.774  0.00  0.00    +0.000 OA
ATOM      2  O   UNL     1     -66.029 -63.459 -73.760  0.00  0.00    +0.000 OA
ATOM      3  O   UNL     1     -67.368 -59.861 -76.874  0.00  0.00    +0.000 OA
ATOM      4  O   UNL     1     -63.690 -65.760 -72.492  0.00  0.00    +0.000 OA
ATOM      5  O   UNL     1     -65.140 -66.152 -75.675  0.00  0.00    +0.000 OA
ATOM      6  C   UNL     1     -66.091 -62.183 -71.730  0.00  0.00    +0.000 C 
ATOM      7  C   UNL     1     -67.132 -61.273 -72.065  0.00  0.00    +0.000 C 
ATOM      8  C   UNL     1     -68.239 -60.331 -72.248  0.00  0.00    +0.000 C 
ATOM      9  C   UNL     1     -65.811 -63.386 -72.557  0.00  0.00    +0.000 C 
ATOM     10  C   UNL     1     -67.961 -59.329 -73.347  0.00  0.00    +0.000 C 
ATOM     11  C   UNL     1     -67.355 -59.649 -74.592  0.00  0.00    +0.000 C 
ATOM     12  C   UNL     1     -66.746 -60.064 -75.838  0.00  0.00    +0.000 C 
ATOM     13  C   UNL     1     -64.876 -65.461 -72.424  0.00  0.00    +0.000 C 
ATOM     14  C   UNL     1     -65.423 -60.759 -75.838  0.00  0.00    +0.000 C 
ATOM     15  C   UNL     1     -65.911 -66.462 -72.786  0.00  0.00    +0.000 C 
ATOM     16  C   UNL     1     -67.168 -66.148 -73.434  0.00  0.00    +0.000 C 
ATOM     17  C   UNL     1     -67.384 -66.073 -74.872  0.00  0.00    +0.000 C 
ATOM     18  C   UNL     1     -65.137 -61.718 -76.841  0.00  0.00    +0.000 C 
ATOM     19  C   UNL     1     -66.500 -64.489 -76.684  0.00  0.00    +0.000 C 
ATOM     20  C   UNL     1     -64.473 -60.704 -74.650  0.00  0.00    +0.000 C 
ATOM     21  C   UNL     1     -65.379 -64.025 -77.494  0.00  0.00    +0.000 C 
ATOM     22  C   UNL     1     -66.257 -65.636 -75.751  0.00  0.00    +0.000 C 
ATOM     23  C   UNL     1     -64.974 -62.647 -77.733  0.00  0.00    +0.000 C 
ATOM     24  C   UNL     1     -68.607 -66.713 -75.524  0.00  0.00    +0.000 C 
ATOM     25  C   UNL     1     -67.754 -63.629 -76.594  0.00  0.00    +0.000 C 
ATOM     26  C   UNL     1     -64.294 -62.223 -79.009  0.00  0.00    +0.000 C 
ENDROOT
BRANCH   8  27
ATOM     27  O   UNL     1     -68.357 -59.627 -71.009  0.00  0.00    +0.000 OA
ATOM     28  H   UNL     1     -67.890 -58.782 -71.166  0.00  0.00    +0.000 HD
ENDBRANCH   8  27
BRANCH  10  29
ATOM     29  O   UNL     1     -68.378 -58.025 -73.129  0.00  0.00    +0.000 OA
ATOM     30  H   UNL     1     -68.043 -57.667 -72.286  0.00  0.00    +0.000 HD
ENDBRANCH  10  29
BRANCH  15  31
ATOM     31  O   UNL     1     -65.502 -67.773 -72.971  0.00  0.00    +0.000 OA
ATOM     32  H   UNL     1     -66.217 -68.299 -73.388  0.00  0.00    +0.000 HD
ENDBRANCH  15  31
BRANCH  16  33
ATOM     33  O   UNL     1     -68.300 -66.423 -72.688  0.00  0.00    +0.000 OA
ATOM     34  C   UNL     1     -68.811 -65.224 -72.160  0.00  0.00    +0.000 C 
ENDBRANCH  16  33
BRANCH  21  35
ATOM     35  O   UNL     1     -64.742 -65.042 -78.249  0.00  0.00    +0.000 OA
BRANCH  35  37
ATOM     36  O   UNL     1     -66.143 -65.010 -80.122  0.00  0.00    +0.000 OA
ATOM     37  C   UNL     1     -65.543 -65.564 -79.219  0.00  0.00    +0.000 C 
ATOM     38  C   UNL     1     -65.671 -67.044 -79.184  0.00  0.00    +0.000 C 
ENDBRANCH  35  37
ENDBRANCH  21  35
BRANCH   6  39
ATOM     39  C   UNL     1     -65.252 -61.848 -70.602  0.00  0.00    +0.000 C 
BRANCH  39  41
ATOM     40  O   UNL     1     -66.820 -62.887 -68.881  0.00  0.00    +0.000 OA
ATOM     41  C   UNL     1     -65.793 -61.926 -69.217  0.00  0.00    +0.000 C 
ATOM     42  C   UNL     1     -65.526 -63.219 -68.593  0.00  0.00    +0.000 C 
ATOM     43  C   UNL     1     -66.039 -60.597 -68.416  0.00  0.00    +0.000 C 
BRANCH  42  44
ATOM     44  C   UNL     1     -65.184 -63.399 -67.214  0.00  0.00    +0.000 C 
ATOM     45  C   UNL     1     -66.271 -63.563 -66.177  0.00  0.00    +0.000 C 
BRANCH  44  46
ATOM     46  C   UNL     1     -63.903 -63.881 -66.847  0.00  0.00    +0.000 C 
ATOM     47  C   UNL     1     -62.840 -64.329 -66.517  0.00  0.00    +0.000 C 
ATOM     48  C   UNL     1     -61.514 -64.964 -66.079  0.00  0.00    +0.000 C 
ENDBRANCH  44  46
ENDBRANCH  42  44
ENDBRANCH  39  41
BRANCH  39  49
ATOM     49  O   UNL     1     -63.974 -61.395 -70.884  0.00  0.00    +0.000 OA
ATOM     50  H   UNL     1     -63.796 -60.479 -70.595  0.00  0.00    +0.000 HD
ENDBRANCH  39  49
ENDBRANCH   6  39
BRANCH   8  51
ATOM     51  C   UNL     1     -69.516 -61.020 -72.494  0.00  0.00    +0.000 C 
BRANCH  51  52
ATOM     52  O   UNL     1     -70.666 -61.641 -72.761  0.00  0.00    +0.000 OA
ATOM     53  H   UNL     1     -71.085 -61.968 -71.940  0.00  0.00    +0.000 HD
ENDBRANCH  51  52
ENDBRANCH   8  51
TORSDOF 13
ENDMDL
MODEL 6
REMARK VINA RESULT:      -4.3     18.947     23.709
REMARK  Name = 102471178_CandidaspongiolideCore.pdbqt.pdb
REMARK  13 active torsions:
REMARK  status: ('A' for Active; 'I' for Inactive)
REMARK    1  A    between atoms: C_6  and  C_39
REMARK    2  A    between atoms: C_8  and  O_27
REMARK    3  A    between atoms: C_8  and  C_51
REMARK    4  A    between atoms: C_10  and  O_29
REMARK    5  A    between atoms: C_15  and  O_31
REMARK    6  A    between atoms: C_16  and  O_33
REMARK    7  A    between atoms: C_21  and  O_35
REMARK    8  A    between atoms: O_35  and  C_37
REMARK    9  A    between atoms: C_39  and  C_41
REMARK   10  A    between atoms: C_39  and  O_49
REMARK   11  A    between atoms: C_42  and  C_44
REMARK   12  A    between atoms: C_44  and  C_46
REMARK   13  A    between atoms: C_51  and  O_52
REMARK                            x       y       z     vdW  Elec       q    Type
REMARK                         _______ _______ _______ _____ _____    ______ ____
ROOT
ATOM      1  O   UNL     1     -68.258 -60.071 -73.397  0.00  0.00    +0.000 OA
ATOM      2  O   UNL     1     -67.797 -61.327 -71.530  0.00  0.00    +0.000 OA
ATOM      3  O   UNL     1     -65.316 -64.583 -68.758  0.00  0.00    +0.000 OA
ATOM      4  O   UNL     1     -68.614 -58.040 -72.478  0.00  0.00    +0.000 OA
ATOM      5  O   UNL     1     -69.622 -59.383 -69.385  0.00  0.00    +0.000 OA
ATOM      6  C   UNL     1     -66.773 -61.835 -73.637  0.00  0.00    +0.000 C 
ATOM      7  C   UNL     1     -66.513 -63.219 -73.436  0.00  0.00    +0.000 C 
ATOM      8  C   UNL     1     -66.261 -64.662 -73.393  0.00  0.00    +0.000 C 
ATOM      9  C   UNL     1     -67.649 -61.064 -72.717  0.00  0.00    +0.000 C 
ATOM     10  C   UNL     1     -65.234 -65.031 -72.344  0.00  0.00    +0.000 C 
ATOM     11  C   UNL     1     -65.175 -64.466 -71.042  0.00  0.00    +0.000 C 
ATOM     12  C   UNL     1     -65.197 -63.849 -69.733  0.00  0.00    +0.000 C 
ATOM     13  C   UNL     1     -68.962 -59.203 -72.648  0.00  0.00    +0.000 C 
ATOM     14  C   UNL     1     -65.122 -62.363 -69.595  0.00  0.00    +0.000 C 
ATOM     15  C   UNL     1     -70.342 -59.619 -72.295  0.00  0.00    +0.000 C 
ATOM     16  C   UNL     1     -70.698 -60.916 -71.758  0.00  0.00    +0.000 C 
ATOM     17  C   UNL     1     -70.713 -61.274 -70.345  0.00  0.00    +0.000 C 
ATOM     18  C   UNL     1     -65.781 -61.727 -68.515  0.00  0.00    +0.000 C 
ATOM     19  C   UNL     1     -68.862 -61.484 -68.584  0.00  0.00    +0.000 C 
ATOM     20  C   UNL     1     -64.616 -61.465 -70.715  0.00  0.00    +0.000 C 
ATOM     21  C   UNL     1     -67.876 -60.831 -67.730  0.00  0.00    +0.000 C 
ATOM     22  C   UNL     1     -69.746 -60.609 -69.420  0.00  0.00    +0.000 C 
ATOM     23  C   UNL     1     -66.478 -61.201 -67.555  0.00  0.00    +0.000 C 
ATOM     24  C   UNL     1     -71.872 -62.061 -69.740  0.00  0.00    +0.000 C 
ATOM     25  C   UNL     1     -68.761 -62.985 -68.817  0.00  0.00    +0.000 C 
ATOM     26  C   UNL     1     -65.741 -60.950 -66.265  0.00  0.00    +0.000 C 
ENDROOT
BRANCH   8  27
ATOM     27  O   UNL     1     -65.741 -65.003 -74.680  0.00  0.00    +0.000 OA
ATOM     28  H   UNL     1     -65.098 -64.291 -74.877  0.00  0.00    +0.000 HD
ENDBRANCH   8  27
BRANCH  10  29
ATOM     29  O   UNL     1     -64.328 -66.027 -72.676  0.00  0.00    +0.000 OA
ATOM     30  H   UNL     1     -64.721 -66.918 -72.616  0.00  0.00    +0.000 HD
ENDBRANCH  10  29
BRANCH  15  31
ATOM     31  O   UNL     1     -71.259 -58.623 -71.996  0.00  0.00    +0.000 OA
ATOM     32  H   UNL     1     -70.831 -57.907 -71.478  0.00  0.00    +0.000 HD
ENDBRANCH  15  31
BRANCH  16  33
ATOM     33  O   UNL     1     -71.526 -61.679 -72.561  0.00  0.00    +0.000 OA
ATOM     34  C   UNL     1     -70.764 -62.671 -73.204  0.00  0.00    +0.000 C 
ENDBRANCH  16  33
BRANCH  21  35
ATOM     35  O   UNL     1     -68.412 -59.841 -66.867  0.00  0.00    +0.000 OA
BRANCH  35  37
ATOM     36  O   UNL     1     -69.092 -61.262 -65.138  0.00  0.00    +0.000 OA
ATOM     37  C   UNL     1     -69.258 -60.354 -65.932  0.00  0.00    +0.000 C 
ATOM     38  C   UNL     1     -70.575 -59.670 -65.850  0.00  0.00    +0.000 C 
ENDBRANCH  35  37
ENDBRANCH  21  35
BRANCH   6  39
ATOM     39  C   UNL     1     -66.081 -61.179 -74.724  0.00  0.00    +0.000 C 
BRANCH  39  41
ATOM     40  O   UNL     1     -67.978 -60.769 -76.378  0.00  0.00    +0.000 OA
ATOM     41  C   UNL     1     -66.635 -61.232 -76.106  0.00  0.00    +0.000 C 
ATOM     42  C   UNL     1     -66.949 -59.904 -76.626  0.00  0.00    +0.000 C 
ATOM     43  C   UNL     1     -66.320 -62.479 -77.008  0.00  0.00    +0.000 C 
BRANCH  42  44
ATOM     44  C   UNL     1     -66.743 -59.496 -77.982  0.00  0.00    +0.000 C 
ATOM     45  C   UNL     1     -67.912 -59.034 -78.822  0.00  0.00    +0.000 C 
BRANCH  44  46
ATOM     46  C   UNL     1     -65.463 -59.076 -78.422  0.00  0.00    +0.000 C 
ATOM     47  C   UNL     1     -64.368 -58.710 -78.747  0.00  0.00    +0.000 C 
ATOM     48  C   UNL     1     -62.948 -58.242 -79.093  0.00  0.00    +0.000 C 
ENDBRANCH  44  46
ENDBRANCH  42  44
ENDBRANCH  39  41
BRANCH  39  49
ATOM     49  O   UNL     1     -64.872 -60.576 -74.424  0.00  0.00    +0.000 OA
ATOM     50  H   UNL     1     -64.102 -60.963 -74.882  0.00  0.00    +0.000 HD
ENDBRANCH  39  49
ENDBRANCH   6  39
BRANCH   8  51
ATOM     51  C   UNL     1     -67.499 -65.433 -73.191  0.00  0.00    +0.000 C 
BRANCH  51  52
ATOM     52  O   UNL     1     -68.606 -66.160 -73.039  0.00  0.00    +0.000 OA
ATOM     53  H   UNL     1     -68.412 -67.115 -73.129  0.00  0.00    +0.000 HD
ENDBRANCH  51  52
ENDBRANCH   8  51
TORSDOF 13
ENDMDL
MODEL 7
REMARK VINA RESULT:      -4.2     37.164     41.758
REMARK  Name = 102471178_CandidaspongiolideCore.pdbqt.pdb
REMARK  13 active torsions:
REMARK  status: ('A' for Active; 'I' for Inactive)
REMARK    1  A    between atoms: C_6  and  C_39
REMARK    2  A    between atoms: C_8  and  O_27
REMARK    3  A    between atoms: C_8  and  C_51
REMARK    4  A    between atoms: C_10  and  O_29
REMARK    5  A    between atoms: C_15  and  O_31
REMARK    6  A    between atoms: C_16  and  O_33
REMARK    7  A    between atoms: C_21  and  O_35
REMARK    8  A    between atoms: O_35  and  C_37
REMARK    9  A    between atoms: C_39  and  C_41
REMARK   10  A    between atoms: C_39  and  O_49
REMARK   11  A    between atoms: C_42  and  C_44
REMARK   12  A    between atoms: C_44  and  C_46
REMARK   13  A    between atoms: C_51  and  O_52
REMARK                            x       y       z     vdW  Elec       q    Type
REMARK                         _______ _______ _______ _____ _____    ______ ____
ROOT
ATOM      1  O   UNL     1     -64.159 -52.347 -13.019  0.00  0.00    +0.000 OA
ATOM      2  O   UNL     1     -64.246 -52.011 -15.290  0.00  0.00    +0.000 OA
ATOM      3  O   UNL     1     -63.934 -53.242 -20.067  0.00  0.00    +0.000 OA
ATOM      4  O   UNL     1     -66.084 -51.366 -12.361  0.00  0.00    +0.000 OA
ATOM      5  O   UNL     1     -66.157 -49.178 -15.116  0.00  0.00    +0.000 OA
ATOM      6  C   UNL     1     -63.193 -53.961 -14.374  0.00  0.00    +0.000 C 
ATOM      7  C   UNL     1     -62.292 -54.252 -15.435  0.00  0.00    +0.000 C 
ATOM      8  C   UNL     1     -61.264 -54.619 -16.413  0.00  0.00    +0.000 C 
ATOM      9  C   UNL     1     -63.929 -52.671 -14.308  0.00  0.00    +0.000 C 
ATOM     10  C   UNL     1     -61.861 -55.063 -17.731  0.00  0.00    +0.000 C 
ATOM     11  C   UNL     1     -62.965 -54.433 -18.366  0.00  0.00    +0.000 C 
ATOM     12  C   UNL     1     -64.084 -53.723 -18.949  0.00  0.00    +0.000 C 
ATOM     13  C   UNL     1     -64.953 -51.277 -12.823  0.00  0.00    +0.000 C 
ATOM     14  C   UNL     1     -65.355 -53.552 -18.183  0.00  0.00    +0.000 C 
ATOM     15  C   UNL     1     -64.287 -49.953 -12.893  0.00  0.00    +0.000 C 
ATOM     16  C   UNL     1     -63.391 -49.538 -13.953  0.00  0.00    +0.000 C 
ATOM     17  C   UNL     1     -63.790 -48.897 -15.199  0.00  0.00    +0.000 C 
ATOM     18  C   UNL     1     -66.142 -52.392 -18.384  0.00  0.00    +0.000 C 
ATOM     19  C   UNL     1     -65.165 -49.705 -17.207  0.00  0.00    +0.000 C 
ATOM     20  C   UNL     1     -65.706 -54.420 -16.982  0.00  0.00    +0.000 C 
ATOM     21  C   UNL     1     -66.461 -50.088 -17.755  0.00  0.00    +0.000 C 
ATOM     22  C   UNL     1     -65.124 -49.228 -15.787  0.00  0.00    +0.000 C 
ATOM     23  C   UNL     1     -66.769 -51.268 -18.551  0.00  0.00    +0.000 C 
ATOM     24  C   UNL     1     -63.036 -47.690 -15.747  0.00  0.00    +0.000 C 
ATOM     25  C   UNL     1     -63.900 -50.077 -17.969  0.00  0.00    +0.000 C 
ATOM     26  C   UNL     1     -67.868 -51.273 -19.582  0.00  0.00    +0.000 C 
ENDROOT
BRANCH   8  27
ATOM     27  O   UNL     1     -60.558 -55.721 -15.838  0.00  0.00    +0.000 OA
ATOM     28  H   UNL     1     -60.410 -56.331 -16.589  0.00  0.00    +0.000 HD
ENDBRANCH   8  27
BRANCH  10  29
ATOM     29  O   UNL     1     -61.245 -56.125 -18.373  0.00  0.00    +0.000 OA
ATOM     30  H   UNL     1     -60.274 -56.036 -18.385  0.00  0.00    +0.000 HD
ENDBRANCH  10  29
BRANCH  15  31
ATOM     31  O   UNL     1     -64.883 -48.896 -12.223  0.00  0.00    +0.000 OA
ATOM     32  H   UNL     1     -65.832 -49.084 -12.061  0.00  0.00    +0.000 HD
ENDBRANCH  15  31
BRANCH  16  33
ATOM     33  O   UNL     1     -62.090 -49.282 -13.558  0.00  0.00    +0.000 OA
ATOM     34  C   UNL     1     -61.271 -50.363 -13.929  0.00  0.00    +0.000 C 
ENDBRANCH  16  33
BRANCH  21  35
ATOM     35  O   UNL     1     -67.468 -49.098 -17.624  0.00  0.00    +0.000 OA
BRANCH  35  37
ATOM     36  O   UNL     1     -66.962 -47.853 -19.539  0.00  0.00    +0.000 OA
ATOM     37  C   UNL     1     -67.209 -47.977 -18.353  0.00  0.00    +0.000 C 
ATOM     38  C   UNL     1     -67.276 -46.709 -17.581  0.00  0.00    +0.000 C 
ENDBRANCH  35  37
ENDBRANCH  21  35
BRANCH   6  39
ATOM     39  C   UNL     1     -63.438 -55.003 -13.403  0.00  0.00    +0.000 C 
BRANCH  39  41
ATOM     40  O   UNL     1     -62.186 -57.187 -13.814  0.00  0.00    +0.000 OA
ATOM     41  C   UNL     1     -63.421 -56.434 -13.818  0.00  0.00    +0.000 C 
ATOM     42  C   UNL     1     -63.010 -57.319 -12.732  0.00  0.00    +0.000 C 
ATOM     43  C   UNL     1     -64.304 -56.886 -15.035  0.00  0.00    +0.000 C 
BRANCH  42  44
ATOM     44  C   UNL     1     -63.570 -58.613 -12.485  0.00  0.00    +0.000 C 
ATOM     45  C   UNL     1     -62.775 -59.858 -12.801  0.00  0.00    +0.000 C 
BRANCH  44  46
ATOM     46  C   UNL     1     -64.625 -58.775 -11.552  0.00  0.00    +0.000 C 
ATOM     47  C   UNL     1     -65.516 -58.960 -10.770  0.00  0.00    +0.000 C 
ATOM     48  C   UNL     1     -66.640 -59.268  -9.773  0.00  0.00    +0.000 C 
ENDBRANCH  44  46
ENDBRANCH  42  44
ENDBRANCH  39  41
BRANCH  39  49
ATOM     49  O   UNL     1     -63.748 -54.600 -12.115  0.00  0.00    +0.000 OA
ATOM     50  H   UNL     1     -64.597 -54.944 -11.777  0.00  0.00    +0.000 HD
ENDBRANCH  39  49
ENDBRANCH   6  39
BRANCH   8  51
ATOM     51  C   UNL     1     -60.296 -53.531 -16.629  0.00  0.00    +0.000 C 
BRANCH  51  52
ATOM     52  O   UNL     1     -59.435 -52.540 -16.866  0.00  0.00    +0.000 OA
ATOM     53  H   UNL     1     -58.939 -52.307 -16.056  0.00  0.00    +0.000 HD
ENDBRANCH  51  52
ENDBRANCH   8  51
TORSDOF 13
ENDMDL
MODEL 8
REMARK VINA RESULT:      -4.2     20.375     24.980
REMARK  Name = 102471178_CandidaspongiolideCore.pdbqt.pdb
REMARK  13 active torsions:
REMARK  status: ('A' for Active; 'I' for Inactive)
REMARK    1  A    between atoms: C_6  and  C_39
REMARK    2  A    between atoms: C_8  and  O_27
REMARK    3  A    between atoms: C_8  and  C_51
REMARK    4  A    between atoms: C_10  and  O_29
REMARK    5  A    between atoms: C_15  and  O_31
REMARK    6  A    between atoms: C_16  and  O_33
REMARK    7  A    between atoms: C_21  and  O_35
REMARK    8  A    between atoms: O_35  and  C_37
REMARK    9  A    between atoms: C_39  and  C_41
REMARK   10  A    between atoms: C_39  and  O_49
REMARK   11  A    between atoms: C_42  and  C_44
REMARK   12  A    between atoms: C_44  and  C_46
REMARK   13  A    between atoms: C_51  and  O_52
REMARK                            x       y       z     vdW  Elec       q    Type
REMARK                         _______ _______ _______ _____ _____    ______ ____
ROOT
ATOM      1  O   UNL     1     -69.270 -59.017 -34.346  0.00  0.00    +0.000 OA
ATOM      2  O   UNL     1     -70.496 -57.896 -35.933  0.00  0.00    +0.000 OA
ATOM      3  O   UNL     1     -74.221 -55.156 -37.679  0.00  0.00    +0.000 OA
ATOM      4  O   UNL     1     -67.185 -58.285 -34.810  0.00  0.00    +0.000 OA
ATOM      5  O   UNL     1     -67.935 -57.644 -38.189  0.00  0.00    +0.000 OA
ATOM      6  C   UNL     1     -71.437 -58.411 -33.789  0.00  0.00    +0.000 C 
ATOM      7  C   UNL     1     -72.815 -58.426 -34.143  0.00  0.00    +0.000 C 
ATOM      8  C   UNL     1     -74.255 -58.552 -34.385  0.00  0.00    +0.000 C 
ATOM      9  C   UNL     1     -70.367 -58.391 -34.820  0.00  0.00    +0.000 C 
ATOM     10  C   UNL     1     -74.882 -57.237 -34.797  0.00  0.00    +0.000 C 
ATOM     11  C   UNL     1     -74.293 -56.315 -35.703  0.00  0.00    +0.000 C 
ATOM     12  C   UNL     1     -73.628 -55.439 -36.644  0.00  0.00    +0.000 C 
ATOM     13  C   UNL     1     -68.175 -58.935 -35.124  0.00  0.00    +0.000 C 
ATOM     14  C   UNL     1     -72.245 -54.942 -36.370  0.00  0.00    +0.000 C 
ATOM     15  C   UNL     1     -68.089 -59.921 -36.231  0.00  0.00    +0.000 C 
ATOM     16  C   UNL     1     -69.161 -60.209 -37.161  0.00  0.00    +0.000 C 
ATOM     17  C   UNL     1     -69.410 -59.504 -38.412  0.00  0.00    +0.000 C 
ATOM     18  C   UNL     1     -71.364 -54.694 -37.451  0.00  0.00    +0.000 C 
ATOM     19  C   UNL     1     -70.118 -57.098 -38.942  0.00  0.00    +0.000 C 
ATOM     20  C   UNL     1     -71.632 -54.965 -34.977  0.00  0.00    +0.000 C 
ATOM     21  C   UNL     1     -69.780 -55.680 -38.976  0.00  0.00    +0.000 C 
ATOM     22  C   UNL     1     -69.050 -58.057 -38.511  0.00  0.00    +0.000 C 
ATOM     23  C   UNL     1     -70.582 -54.570 -38.479  0.00  0.00    +0.000 C 
ATOM     24  C   UNL     1     -69.732 -60.262 -39.697  0.00  0.00    +0.000 C 
ATOM     25  C   UNL     1     -71.579 -57.514 -39.050  0.00  0.00    +0.000 C 
ATOM     26  C   UNL     1     -70.514 -53.196 -39.095  0.00  0.00    +0.000 C 
ENDROOT
BRANCH   8  27
ATOM     27  O   UNL     1     -74.823 -58.957 -33.138  0.00  0.00    +0.000 OA
ATOM     28  H   UNL     1     -75.788 -58.951 -33.299  0.00  0.00    +0.000 HD
ENDBRANCH   8  27
BRANCH  10  29
ATOM     29  O   UNL     1     -76.139 -56.954 -34.287  0.00  0.00    +0.000 OA
ATOM     30  H   UNL     1     -76.713 -56.515 -34.942  0.00  0.00    +0.000 HD
ENDBRANCH  10  29
BRANCH  15  31
ATOM     31  O   UNL     1     -66.830 -60.232 -36.720  0.00  0.00    +0.000 OA
ATOM     32  H   UNL     1     -66.456 -59.470 -37.213  0.00  0.00    +0.000 HD
ENDBRANCH  15  31
BRANCH  16  33
ATOM     33  O   UNL     1     -69.652 -61.501 -37.112  0.00  0.00    +0.000 OA
ATOM     34  C   UNL     1     -70.870 -61.509 -36.408  0.00  0.00    +0.000 C 
ENDBRANCH  16  33
BRANCH  21  35
ATOM     35  O   UNL     1     -68.620 -55.372 -39.732  0.00  0.00    +0.000 OA
BRANCH  35  37
ATOM     36  O   UNL     1     -69.682 -55.336 -41.816  0.00  0.00    +0.000 OA
ATOM     37  C   UNL     1     -68.770 -55.624 -41.061  0.00  0.00    +0.000 C 
ATOM     38  C   UNL     1     -67.621 -56.326 -41.690  0.00  0.00    +0.000 C 
ENDBRANCH  35  37
ENDBRANCH  21  35
BRANCH   6  39
ATOM     39  C   UNL     1     -71.113 -58.326 -32.383  0.00  0.00    +0.000 C 
BRANCH  39  41
ATOM     40  O   UNL     1     -72.149 -56.112 -31.659  0.00  0.00    +0.000 OA
ATOM     41  C   UNL     1     -71.008 -56.998 -31.717  0.00  0.00    +0.000 C 
ATOM     42  C   UNL     1     -71.897 -56.888 -30.563  0.00  0.00    +0.000 C 
ATOM     43  C   UNL     1     -69.698 -56.151 -31.902  0.00  0.00    +0.000 C 
BRANCH  42  44
ATOM     44  C   UNL     1     -71.562 -56.217 -29.344  0.00  0.00    +0.000 C 
ATOM     45  C   UNL     1     -71.770 -54.725 -29.217  0.00  0.00    +0.000 C 
BRANCH  44  46
ATOM     46  C   UNL     1     -71.483 -56.935 -28.124  0.00  0.00    +0.000 C 
ATOM     47  C   UNL     1     -71.382 -57.573 -27.113  0.00  0.00    +0.000 C 
ATOM     48  C   UNL     1     -71.195 -58.420 -25.848  0.00  0.00    +0.000 C 
ENDBRANCH  44  46
ENDBRANCH  42  44
ENDBRANCH  39  41
BRANCH  39  49
ATOM     49  O   UNL     1     -70.844 -59.517 -31.729  0.00  0.00    +0.000 OA
ATOM     50  H   UNL     1     -70.347 -59.416 -30.894  0.00  0.00    +0.000 HD
ENDBRANCH  39  49
ENDBRANCH   6  39
BRANCH   8  51
ATOM     51  C   UNL     1     -74.558 -59.597 -35.376  0.00  0.00    +0.000 C 
BRANCH  51  52
ATOM     52  O   UNL     1     -74.851 -60.569 -36.242  0.00  0.00    +0.000 OA
ATOM     53  H   UNL     1     -75.171 -61.368 -35.776  0.00  0.00    +0.000 HD
ENDBRANCH  51  52
ENDBRANCH   8  51
TORSDOF 13
ENDMDL
MODEL 9
REMARK VINA RESULT:      -4.2     22.035     27.008
REMARK  Name = 102471178_CandidaspongiolideCore.pdbqt.pdb
REMARK  13 active torsions:
REMARK  status: ('A' for Active; 'I' for Inactive)
REMARK    1  A    between atoms: C_6  and  C_39
REMARK    2  A    between atoms: C_8  and  O_27
REMARK    3  A    between atoms: C_8  and  C_51
REMARK    4  A    between atoms: C_10  and  O_29
REMARK    5  A    between atoms: C_15  and  O_31
REMARK    6  A    between atoms: C_16  and  O_33
REMARK    7  A    between atoms: C_21  and  O_35
REMARK    8  A    between atoms: O_35  and  C_37
REMARK    9  A    between atoms: C_39  and  C_41
REMARK   10  A    between atoms: C_39  and  O_49
REMARK   11  A    between atoms: C_42  and  C_44
REMARK   12  A    between atoms: C_44  and  C_46
REMARK   13  A    between atoms: C_51  and  O_52
REMARK                            x       y       z     vdW  Elec       q    Type
REMARK                         _______ _______ _______ _____ _____    ______ ____
ROOT
ATOM      1  O   UNL     1     -73.897 -58.234 -35.422  0.00  0.00    +0.000 OA
ATOM      2  O   UNL     1     -72.282 -58.307 -33.790  0.00  0.00    +0.000 OA
ATOM      3  O   UNL     1     -67.695 -58.234 -31.948  0.00  0.00    +0.000 OA
ATOM      4  O   UNL     1     -75.362 -56.773 -34.518  0.00  0.00    +0.000 OA
ATOM      5  O   UNL     1     -74.398 -57.522 -31.217  0.00  0.00    +0.000 OA
ATOM      6  C   UNL     1     -71.709 -58.586 -36.101  0.00  0.00    +0.000 C 
ATOM      7  C   UNL     1     -70.513 -59.341 -35.949  0.00  0.00    +0.000 C 
ATOM      8  C   UNL     1     -69.317 -60.187 -35.940  0.00  0.00    +0.000 C 
ATOM      9  C   UNL     1     -72.635 -58.354 -34.961  0.00  0.00    +0.000 C 
ATOM     10  C   UNL     1     -68.130 -59.492 -35.310  0.00  0.00    +0.000 C 
ATOM     11  C   UNL     1     -68.195 -58.693 -34.137  0.00  0.00    +0.000 C 
ATOM     12  C   UNL     1     -68.351 -57.907 -32.931  0.00  0.00    +0.000 C 
ATOM     13  C   UNL     1     -74.815 -57.869 -34.507  0.00  0.00    +0.000 C 
ATOM     14  C   UNL     1     -69.317 -56.768 -32.889  0.00  0.00    +0.000 C 
ATOM     15  C   UNL     1     -75.370 -58.962 -33.671  0.00  0.00    +0.000 C 
ATOM     16  C   UNL     1     -74.574 -59.963 -32.991  0.00  0.00    +0.000 C 
ATOM     17  C   UNL     1     -74.015 -59.835 -31.652  0.00  0.00    +0.000 C 
ATOM     18  C   UNL     1     -69.965 -56.446 -31.671  0.00  0.00    +0.000 C 
ATOM     19  C   UNL     1     -72.225 -58.294 -30.654  0.00  0.00    +0.000 C 
ATOM     20  C   UNL     1     -69.861 -56.114 -34.151  0.00  0.00    +0.000 C 
ATOM     21  C   UNL     1     -71.830 -56.955 -30.232  0.00  0.00    +0.000 C 
ATOM     22  C   UNL     1     -73.625 -58.480 -31.157  0.00  0.00    +0.000 C 
ATOM     23  C   UNL     1     -70.589 -56.261 -30.549  0.00  0.00    +0.000 C 
ATOM     24  C   UNL     1     -74.104 -60.977 -30.644  0.00  0.00    +0.000 C 
ATOM     25  C   UNL     1     -71.152 -59.357 -30.847  0.00  0.00    +0.000 C 
ATOM     26  C   UNL     1     -69.980 -55.247 -29.615  0.00  0.00    +0.000 C 
ENDROOT
BRANCH   8  27
ATOM     27  O   UNL     1     -69.016 -60.448 -37.313  0.00  0.00    +0.000 OA
ATOM     28  H   UNL     1     -69.077 -61.421 -37.394  0.00  0.00    +0.000 HD
ENDBRANCH   8  27
BRANCH  10  29
ATOM     29  O   UNL     1     -66.893 -59.701 -35.901  0.00  0.00    +0.000 OA
ATOM     30  H   UNL     1     -66.539 -58.890 -36.312  0.00  0.00    +0.000 HD
ENDBRANCH  10  29
BRANCH  15  31
ATOM     31  O   UNL     1     -76.622 -58.769 -33.107  0.00  0.00    +0.000 OA
ATOM     32  H   UNL     1     -76.546 -58.270 -32.266  0.00  0.00    +0.000 HD
ENDBRANCH  15  31
BRANCH  16  33
ATOM     33  O   UNL     1     -74.775 -61.264 -33.417  0.00  0.00    +0.000 OA
ATOM     34  C   UNL     1     -73.702 -61.654 -34.238  0.00  0.00    +0.000 C 
ENDBRANCH  16  33
BRANCH  21  35
ATOM     35  O   UNL     1     -72.694 -56.363 -29.276  0.00  0.00    +0.000 OA
BRANCH  35  37
ATOM     36  O   UNL     1     -71.708 -57.248 -27.348  0.00  0.00    +0.000 OA
ATOM     37  C   UNL     1     -72.656 -56.988 -28.067  0.00  0.00    +0.000 C 
ATOM     38  C   UNL     1     -73.987 -57.379 -27.533  0.00  0.00    +0.000 C 
ENDBRANCH  35  37
ENDBRANCH  21  35
BRANCH   6  39
ATOM     39  C   UNL     1     -71.950 -57.973 -37.388  0.00  0.00    +0.000 C 
BRANCH  39  41
ATOM     40  O   UNL     1     -72.277 -55.721 -38.539  0.00  0.00    +0.000 OA
ATOM     41  C   UNL     1     -71.523 -56.569 -37.642  0.00  0.00    +0.000 C 
ATOM     42  C   UNL     1     -72.522 -55.600 -37.200  0.00  0.00    +0.000 C 
ATOM     43  C   UNL     1     -69.992 -56.251 -37.785  0.00  0.00    +0.000 C 
BRANCH  42  44
ATOM     44  C   UNL     1     -72.216 -54.343 -36.586  0.00  0.00    +0.000 C 
ATOM     45  C   UNL     1     -72.084 -53.097 -37.431  0.00  0.00    +0.000 C 
BRANCH  44  46
ATOM     46  C   UNL     1     -72.482 -54.131 -35.210  0.00  0.00    +0.000 C 
ATOM     47  C   UNL     1     -72.680 -53.990 -34.035  0.00  0.00    +0.000 C 
ATOM     48  C   UNL     1     -72.882 -53.860 -32.520  0.00  0.00    +0.000 C 
ENDBRANCH  44  46
ENDBRANCH  42  44
ENDBRANCH  39  41
BRANCH  39  49
ATOM     49  O   UNL     1     -72.646 -58.725 -38.320  0.00  0.00    +0.000 OA
ATOM     50  H   UNL     1     -73.203 -59.430 -37.936  0.00  0.00    +0.000 HD
ENDBRANCH  39  49
ENDBRANCH   6  39
BRANCH   8  51
ATOM     51  C   UNL     1     -69.561 -61.481 -35.282  0.00  0.00    +0.000 C 
BRANCH  51  52
ATOM     52  O   UNL     1     -69.826 -62.645 -34.688  0.00  0.00    +0.000 OA
ATOM     53  H   UNL     1     -70.791 -62.778 -34.592  0.00  0.00    +0.000 HD
ENDBRANCH  51  52
ENDBRANCH   8  51
TORSDOF 13
ENDMDL
