MODEL 1
REMARK VINA RESULT:      -4.7      0.000      0.000
REMARK  Name = 10281_Thymoquinone.pdbqt.pdb
REMARK  1 active torsions:
REMARK  status: ('A' for Active; 'I' for Inactive)
REMARK    1  A    between atoms: C_3  and  C_10
REMARK                            x       y       z     vdW  Elec       q    Type
REMARK                         _______ _______ _______ _____ _____    ______ ____
ROOT
ATOM      1  O   UNL     1     -59.100 -55.417 -56.971  0.00  0.00    +0.000 OA
ATOM      2  O   UNL     1     -64.176 -56.501 -58.383  0.00  0.00    +0.000 OA
ATOM      3  C   UNL     1     -60.675 -55.703 -58.785  0.00  0.00    +0.000 C 
ATOM      4  C   UNL     1     -60.229 -55.655 -57.352  0.00  0.00    +0.000 C 
ATOM      5  C   UNL     1     -61.950 -55.986 -58.873  0.00  0.00    +0.000 C 
ATOM      6  C   UNL     1     -62.590 -56.214 -56.505  0.00  0.00    +0.000 C 
ATOM      7  C   UNL     1     -63.060 -56.267 -57.961  0.00  0.00    +0.000 C 
ATOM      8  C   UNL     1     -61.318 -55.932 -56.424  0.00  0.00    +0.000 C 
ATOM      9  C   UNL     1     -63.435 -56.445 -55.294  0.00  0.00    +0.000 C 
ENDROOT
BRANCH   3  10
ATOM     10  C   UNL     1     -59.749 -55.462 -59.842  0.00  0.00    +0.000 C 
ATOM     11  C   UNL     1     -59.500 -54.059 -60.339  0.00  0.00    +0.000 C 
ATOM     12  C   UNL     1     -58.707 -56.493 -60.199  0.00  0.00    +0.000 C 
ENDBRANCH   3  10
TORSDOF 1
ENDMDL
MODEL 2
REMARK VINA RESULT:      -4.5      9.191     10.644
REMARK  Name = 10281_Thymoquinone.pdbqt.pdb
REMARK  1 active torsions:
REMARK  status: ('A' for Active; 'I' for Inactive)
REMARK    1  A    between atoms: C_3  and  C_10
REMARK                            x       y       z     vdW  Elec       q    Type
REMARK                         _______ _______ _______ _____ _____    ______ ____
ROOT
ATOM      1  O   UNL     1     -66.205 -47.831 -60.374  0.00  0.00    +0.000 OA
ATOM      2  O   UNL     1     -61.870 -45.877 -57.859  0.00  0.00    +0.000 OA
ATOM      3  C   UNL     1     -65.284 -46.975 -58.308  0.00  0.00    +0.000 C 
ATOM      4  C   UNL     1     -65.262 -47.384 -59.752  0.00  0.00    +0.000 C 
ATOM      5  C   UNL     1     -64.112 -46.533 -57.925  0.00  0.00    +0.000 C 
ATOM      6  C   UNL     1     -62.783 -46.748 -59.989  0.00  0.00    +0.000 C 
ATOM      7  C   UNL     1     -62.788 -46.327 -58.516  0.00  0.00    +0.000 C 
ATOM      8  C   UNL     1     -63.953 -47.187 -60.364  0.00  0.00    +0.000 C 
ATOM      9  C   UNL     1     -61.618 -46.683 -60.923  0.00  0.00    +0.000 C 
ENDROOT
BRANCH   3  10
ATOM     10  C   UNL     1     -66.476 -47.096 -57.537  0.00  0.00    +0.000 C 
ATOM     11  C   UNL     1     -67.569 -46.061 -57.645  0.00  0.00    +0.000 C 
ATOM     12  C   UNL     1     -66.869 -48.423 -56.935  0.00  0.00    +0.000 C 
ENDBRANCH   3  10
TORSDOF 1
ENDMDL
MODEL 3
REMARK VINA RESULT:      -4.3     23.410     26.439
REMARK  Name = 10281_Thymoquinone.pdbqt.pdb
REMARK  1 active torsions:
REMARK  status: ('A' for Active; 'I' for Inactive)
REMARK    1  A    between atoms: C_3  and  C_10
REMARK                            x       y       z     vdW  Elec       q    Type
REMARK                         _______ _______ _______ _____ _____    ______ ____
ROOT
ATOM      1  O   UNL     1     -67.558 -58.109 -31.860  0.00  0.00    +0.000 OA
ATOM      2  O   UNL     1     -70.619 -56.014 -35.757  0.00  0.00    +0.000 OA
ATOM      3  C   UNL     1     -69.576 -56.894 -32.410  0.00  0.00    +0.000 C 
ATOM      4  C   UNL     1     -68.291 -57.616 -32.695  0.00  0.00    +0.000 C 
ATOM      5  C   UNL     1     -70.138 -56.477 -33.517  0.00  0.00    +0.000 C 
ATOM      6  C   UNL     1     -68.547 -57.260 -35.227  0.00  0.00    +0.000 C 
ATOM      7  C   UNL     1     -69.859 -56.520 -34.954  0.00  0.00    +0.000 C 
ATOM      8  C   UNL     1     -67.992 -57.673 -34.120  0.00  0.00    +0.000 C 
ATOM      9  C   UNL     1     -67.934 -57.507 -36.568  0.00  0.00    +0.000 C 
ENDROOT
BRANCH   3  10
ATOM     10  C   UNL     1     -70.038 -56.732 -31.071  0.00  0.00    +0.000 C 
ATOM     11  C   UNL     1     -69.956 -55.388 -30.389  0.00  0.00    +0.000 C 
ATOM     12  C   UNL     1     -70.980 -57.738 -30.457  0.00  0.00    +0.000 C 
ENDBRANCH   3  10
TORSDOF 1
ENDMDL
MODEL 4
REMARK VINA RESULT:      -4.2      9.371      9.780
REMARK  Name = 10281_Thymoquinone.pdbqt.pdb
REMARK  1 active torsions:
REMARK  status: ('A' for Active; 'I' for Inactive)
REMARK    1  A    between atoms: C_3  and  C_10
REMARK                            x       y       z     vdW  Elec       q    Type
REMARK                         _______ _______ _______ _____ _____    ______ ____
ROOT
ATOM      1  O   UNL     1     -62.722 -45.901 -57.161  0.00  0.00    +0.000 OA
ATOM      2  O   UNL     1     -66.697 -47.771 -60.268  0.00  0.00    +0.000 OA
ATOM      3  C   UNL     1     -63.504 -46.310 -59.414  0.00  0.00    +0.000 C 
ATOM      4  C   UNL     1     -63.584 -46.309 -57.915  0.00  0.00    +0.000 C 
ATOM      5  C   UNL     1     -64.590 -46.813 -59.945  0.00  0.00    +0.000 C 
ATOM      6  C   UNL     1     -65.927 -47.365 -57.950  0.00  0.00    +0.000 C 
ATOM      7  C   UNL     1     -65.860 -47.374 -59.480  0.00  0.00    +0.000 C 
ATOM      8  C   UNL     1     -64.842 -46.862 -57.428  0.00  0.00    +0.000 C 
ATOM      9  C   UNL     1     -67.064 -47.854 -57.112  0.00  0.00    +0.000 C 
ENDROOT
BRANCH   3  10
ATOM     10  C   UNL     1     -62.347 -45.809 -60.080  0.00  0.00    +0.000 C 
ATOM     11  C   UNL     1     -62.108 -44.323 -60.191  0.00  0.00    +0.000 C 
ATOM     12  C   UNL     1     -61.149 -46.698 -60.310  0.00  0.00    +0.000 C 
ENDBRANCH   3  10
TORSDOF 1
ENDMDL
MODEL 5
REMARK VINA RESULT:      -4.2     24.435     27.549
REMARK  Name = 10281_Thymoquinone.pdbqt.pdb
REMARK  1 active torsions:
REMARK  status: ('A' for Active; 'I' for Inactive)
REMARK    1  A    between atoms: C_3  and  C_10
REMARK                            x       y       z     vdW  Elec       q    Type
REMARK                         _______ _______ _______ _____ _____    ______ ____
ROOT
ATOM      1  O   UNL     1     -71.796 -55.120 -32.682  0.00  0.00    +0.000 OA
ATOM      2  O   UNL     1     -67.476 -58.302 -33.073  0.00  0.00    +0.000 OA
ATOM      3  C   UNL     1     -70.126 -56.413 -31.503  0.00  0.00    +0.000 C 
ATOM      4  C   UNL     1     -70.819 -55.842 -32.706  0.00  0.00    +0.000 C 
ATOM      5  C   UNL     1     -69.105 -57.154 -31.853  0.00  0.00    +0.000 C 
ATOM      6  C   UNL     1     -69.169 -56.987 -34.311  0.00  0.00    +0.000 C 
ATOM      7  C   UNL     1     -68.452 -57.578 -33.093  0.00  0.00    +0.000 C 
ATOM      8  C   UNL     1     -70.186 -56.250 -33.954  0.00  0.00    +0.000 C 
ATOM      9  C   UNL     1     -68.795 -57.192 -35.743  0.00  0.00    +0.000 C 
ENDROOT
BRANCH   3  10
ATOM     10  C   UNL     1     -70.601 -56.129 -30.189  0.00  0.00    +0.000 C 
ATOM     11  C   UNL     1     -71.257 -57.207 -29.360  0.00  0.00    +0.000 C 
ATOM     12  C   UNL     1     -70.104 -54.918 -29.438  0.00  0.00    +0.000 C 
ENDBRANCH   3  10
TORSDOF 1
ENDMDL
MODEL 6
REMARK VINA RESULT:      -4.1     27.130     29.658
REMARK  Name = 10281_Thymoquinone.pdbqt.pdb
REMARK  1 active torsions:
REMARK  status: ('A' for Active; 'I' for Inactive)
REMARK    1  A    between atoms: C_3  and  C_10
REMARK                            x       y       z     vdW  Elec       q    Type
REMARK                         _______ _______ _______ _____ _____    ______ ____
ROOT
ATOM      1  O   UNL     1     -69.834 -54.735 -29.881  0.00  0.00    +0.000 OA
ATOM      2  O   UNL     1     -72.298 -59.475 -29.242  0.00  0.00    +0.000 OA
ATOM      3  C   UNL     1     -70.398 -56.869 -30.872  0.00  0.00    +0.000 C 
ATOM      4  C   UNL     1     -70.373 -55.821 -29.797  0.00  0.00    +0.000 C 
ATOM      5  C   UNL     1     -71.056 -57.931 -30.481  0.00  0.00    +0.000 C 
ATOM      6  C   UNL     1     -71.739 -57.300 -28.199  0.00  0.00    +0.000 C 
ATOM      7  C   UNL     1     -71.773 -58.379 -29.285  0.00  0.00    +0.000 C 
ATOM      8  C   UNL     1     -71.082 -56.244 -28.595  0.00  0.00    +0.000 C 
ATOM      9  C   UNL     1     -72.362 -57.390 -26.844  0.00  0.00    +0.000 C 
ENDROOT
BRANCH   3  10
ATOM     10  C   UNL     1     -69.754 -56.641 -32.123  0.00  0.00    +0.000 C 
ATOM     11  C   UNL     1     -68.524 -57.427 -32.508  0.00  0.00    +0.000 C 
ATOM     12  C   UNL     1     -70.485 -55.950 -33.248  0.00  0.00    +0.000 C 
ENDBRANCH   3  10
TORSDOF 1
ENDMDL
MODEL 7
REMARK VINA RESULT:      -4.0     36.101     38.912
REMARK  Name = 10281_Thymoquinone.pdbqt.pdb
REMARK  1 active torsions:
REMARK  status: ('A' for Active; 'I' for Inactive)
REMARK    1  A    between atoms: C_3  and  C_10
REMARK                            x       y       z     vdW  Elec       q    Type
REMARK                         _______ _______ _______ _____ _____    ______ ____
ROOT
ATOM      1  O   UNL     1     -76.240 -56.912 -22.769  0.00  0.00    +0.000 OA
ATOM      2  O   UNL     1     -72.508 -55.296 -19.248  0.00  0.00    +0.000 OA
ATOM      3  C   UNL     1     -73.884 -56.794 -22.235  0.00  0.00    +0.000 C 
ATOM      4  C   UNL     1     -75.352 -56.572 -22.013  0.00  0.00    +0.000 C 
ATOM      5  C   UNL     1     -73.178 -56.313 -21.242  0.00  0.00    +0.000 C 
ATOM      6  C   UNL     1     -74.927 -55.402 -19.764  0.00  0.00    +0.000 C 
ATOM      7  C   UNL     1     -73.426 -55.620 -19.977  0.00  0.00    +0.000 C 
ATOM      8  C   UNL     1     -75.624 -55.883 -20.757  0.00  0.00    +0.000 C 
ATOM      9  C   UNL     1     -75.566 -54.733 -18.591  0.00  0.00    +0.000 C 
ENDROOT
BRANCH   3  10
ATOM     10  C   UNL     1     -73.418 -57.450 -23.412  0.00  0.00    +0.000 C 
ATOM     11  C   UNL     1     -73.537 -56.783 -24.760  0.00  0.00    +0.000 C 
ATOM     12  C   UNL     1     -72.441 -58.596 -23.315  0.00  0.00    +0.000 C 
ENDBRANCH   3  10
TORSDOF 1
ENDMDL
MODEL 8
REMARK VINA RESULT:      -3.9     10.111     11.011
REMARK  Name = 10281_Thymoquinone.pdbqt.pdb
REMARK  1 active torsions:
REMARK  status: ('A' for Active; 'I' for Inactive)
REMARK    1  A    between atoms: C_3  and  C_10
REMARK                            x       y       z     vdW  Elec       q    Type
REMARK                         _______ _______ _______ _____ _____    ______ ____
ROOT
ATOM      1  O   UNL     1     -64.975 -48.312 -60.459  0.00  0.00    +0.000 OA
ATOM      2  O   UNL     1     -65.720 -43.212 -58.917  0.00  0.00    +0.000 OA
ATOM      3  C   UNL     1     -63.937 -46.233 -59.786  0.00  0.00    +0.000 C 
ATOM      4  C   UNL     1     -65.079 -47.154 -60.106  0.00  0.00    +0.000 C 
ATOM      5  C   UNL     1     -64.370 -45.048 -59.437  0.00  0.00    +0.000 C 
ATOM      6  C   UNL     1     -66.813 -45.325 -59.600  0.00  0.00    +0.000 C 
ATOM      7  C   UNL     1     -65.660 -44.374 -59.272  0.00  0.00    +0.000 C 
ATOM      8  C   UNL     1     -66.375 -46.505 -59.948  0.00  0.00    +0.000 C 
ATOM      9  C   UNL     1     -68.271 -45.000 -59.545  0.00  0.00    +0.000 C 
ENDROOT
BRANCH   3  10
ATOM     10  C   UNL     1     -62.589 -46.686 -59.886  0.00  0.00    +0.000 C 
ATOM     11  C   UNL     1     -61.959 -46.929 -61.236  0.00  0.00    +0.000 C 
ATOM     12  C   UNL     1     -61.641 -46.534 -58.722  0.00  0.00    +0.000 C 
ENDBRANCH   3  10
TORSDOF 1
ENDMDL
MODEL 9
REMARK VINA RESULT:      -3.9     20.398     22.009
REMARK  Name = 10281_Thymoquinone.pdbqt.pdb
REMARK  1 active torsions:
REMARK  status: ('A' for Active; 'I' for Inactive)
REMARK    1  A    between atoms: C_3  and  C_10
REMARK                            x       y       z     vdW  Elec       q    Type
REMARK                         _______ _______ _______ _____ _____    ______ ____
ROOT
ATOM      1  O   UNL     1     -62.689 -56.529 -79.594  0.00  0.00    +0.000 OA
ATOM      2  O   UNL     1     -62.031 -61.834 -78.987  0.00  0.00    +0.000 OA
ATOM      3  C   UNL     1     -61.661 -58.548 -80.444  0.00  0.00    +0.000 C 
ATOM      4  C   UNL     1     -62.503 -57.727 -79.510  0.00  0.00    +0.000 C 
ATOM      5  C   UNL     1     -61.655 -59.809 -80.090  0.00  0.00    +0.000 C 
ATOM      6  C   UNL     1     -63.099 -59.788 -78.093  0.00  0.00    +0.000 C 
ATOM      7  C   UNL     1     -62.243 -60.638 -79.036  0.00  0.00    +0.000 C 
ATOM      8  C   UNL     1     -63.100 -58.532 -78.451  0.00  0.00    +0.000 C 
ATOM      9  C   UNL     1     -63.858 -60.278 -76.903  0.00  0.00    +0.000 C 
ENDROOT
BRANCH   3  10
ATOM     10  C   UNL     1     -60.990 -57.937 -81.543  0.00  0.00    +0.000 C 
ATOM     11  C   UNL     1     -59.498 -57.708 -81.501  0.00  0.00    +0.000 C 
ATOM     12  C   UNL     1     -61.635 -57.891 -82.906  0.00  0.00    +0.000 C 
ENDBRANCH   3  10
TORSDOF 1
ENDMDL
