MODEL 1
REMARK VINA RESULT:      -5.7      0.000      0.000
REMARK  Name = 10288191_Binimetinib.pdbqt.pdb
REMARK  6 active torsions:
REMARK  status: ('A' for Active; 'I' for Inactive)
REMARK    1  A    between atoms: C_6  and  N_21
REMARK    2  A    between atoms: C_7  and  C_14
REMARK    3  A    between atoms: N_13  and  O_16
REMARK    4  A    between atoms: O_16  and  C_17
REMARK    5  A    between atoms: C_18  and  O_19
REMARK    6  A    between atoms: N_21  and  C_25
REMARK                            x       y       z     vdW  Elec       q    Type
REMARK                         _______ _______ _______ _____ _____    ______ ____
ROOT
ATOM      1  F   UNL     1     -69.427 -53.853 -30.677  0.00  0.00    +0.000 F 
ATOM      2  N   UNL     1     -73.366 -53.543 -28.481  0.00  0.00    +0.000 N 
ATOM      3  N   UNL     1     -71.676 -52.453 -29.390  0.00  0.00    +0.000 NA
ATOM      4  C   UNL     1     -72.561 -54.522 -28.988  0.00  0.00    +0.000 A 
ATOM      5  C   UNL     1     -71.507 -53.815 -29.559  0.00  0.00    +0.000 A 
ATOM      6  C   UNL     1     -70.500 -55.949 -30.245  0.00  0.00    +0.000 A 
ATOM      7  C   UNL     1     -71.590 -56.623 -29.635  0.00  0.00    +0.000 A 
ATOM      8  C   UNL     1     -72.629 -55.916 -29.001  0.00  0.00    +0.000 A 
ATOM      9  C   UNL     1     -70.473 -54.536 -30.187  0.00  0.00    +0.000 A 
ATOM     10  C   UNL     1     -72.814 -52.324 -28.735  0.00  0.00    +0.000 A 
ATOM     11  C   UNL     1     -74.604 -53.755 -27.807  0.00  0.00    +0.000 C 
ENDROOT
BRANCH   7  14
ATOM     12  O   UNL     1     -71.589 -58.746 -30.665  0.00  0.00    +0.000 OA
ATOM     13  N   UNL     1     -71.824 -58.709 -28.374  0.00  0.00    +0.000 N 
ATOM     14  C   UNL     1     -71.666 -58.119 -29.612  0.00  0.00    +0.000 C 
ATOM     15  H   UNL     1     -72.236 -58.212 -27.594  0.00  0.00    +0.000 HD
BRANCH  13  16
ATOM     16  O   UNL     1     -72.172 -60.076 -28.434  0.00  0.00    +0.000 OA
BRANCH  16  17
ATOM     17  C   UNL     1     -72.160 -60.519 -27.178  0.00  0.00    +0.000 C 
ATOM     18  C   UNL     1     -72.148 -61.042 -25.738  0.00  0.00    +0.000 C 
BRANCH  18  19
ATOM     19  O   UNL     1     -72.138 -61.503 -24.492  0.00  0.00    +0.000 OA
ATOM     20  H   UNL     1     -71.224 -61.575 -24.169  0.00  0.00    +0.000 HD
ENDBRANCH  18  19
ENDBRANCH  16  17
ENDBRANCH  13  16
ENDBRANCH   7  14
BRANCH   6  21
ATOM     21  N   UNL     1     -69.488 -56.683 -30.917  0.00  0.00    +0.000 N 
ATOM     22  H   UNL     1     -69.072 -57.427 -30.336  0.00  0.00    +0.000 HD
BRANCH  21  25
ATOM     23 BR   UNL     1     -68.236 -57.560 -36.820  0.00  0.00    +0.000 Br
ATOM     24  F   UNL     1     -67.265 -58.084 -31.754  0.00  0.00    +0.000 F 
ATOM     25  C   UNL     1     -69.250 -56.901 -32.290  0.00  0.00    +0.000 A 
ATOM     26  C   UNL     1     -68.095 -57.595 -32.689  0.00  0.00    +0.000 A 
ATOM     27  C   UNL     1     -70.074 -56.393 -33.297  0.00  0.00    +0.000 A 
ATOM     28  C   UNL     1     -67.783 -57.800 -34.029  0.00  0.00    +0.000 A 
ATOM     29  C   UNL     1     -69.779 -56.589 -34.646  0.00  0.00    +0.000 A 
ATOM     30  C   UNL     1     -68.635 -57.293 -35.001  0.00  0.00    +0.000 A 
ENDBRANCH  21  25
ENDBRANCH   6  21
TORSDOF 6
ENDMDL
MODEL 2
REMARK VINA RESULT:      -5.3     24.181     27.227
REMARK  Name = 10288191_Binimetinib.pdbqt.pdb
REMARK  6 active torsions:
REMARK  status: ('A' for Active; 'I' for Inactive)
REMARK    1  A    between atoms: C_6  and  N_21
REMARK    2  A    between atoms: C_7  and  C_14
REMARK    3  A    between atoms: N_13  and  O_16
REMARK    4  A    between atoms: O_16  and  C_17
REMARK    5  A    between atoms: C_18  and  O_19
REMARK    6  A    between atoms: N_21  and  C_25
REMARK                            x       y       z     vdW  Elec       q    Type
REMARK                         _______ _______ _______ _____ _____    ______ ____
ROOT
ATOM      1  F   UNL     1     -63.531 -44.124 -54.980  0.00  0.00    +0.000 F 
ATOM      2  N   UNL     1     -62.821 -45.856 -50.866  0.00  0.00    +0.000 N 
ATOM      3  N   UNL     1     -62.673 -44.077 -52.163  0.00  0.00    +0.000 NA
ATOM      4  C   UNL     1     -63.334 -46.263 -52.064  0.00  0.00    +0.000 A 
ATOM      5  C   UNL     1     -63.236 -45.128 -52.863  0.00  0.00    +0.000 A 
ATOM      6  C   UNL     1     -64.239 -46.395 -54.715  0.00  0.00    +0.000 A 
ATOM      7  C   UNL     1     -64.303 -47.529 -53.862  0.00  0.00    +0.000 A 
ATOM      8  C   UNL     1     -63.852 -47.473 -52.531  0.00  0.00    +0.000 A 
ATOM      9  C   UNL     1     -63.689 -45.200 -54.195  0.00  0.00    +0.000 A 
ATOM     10  C   UNL     1     -62.436 -44.553 -50.955  0.00  0.00    +0.000 A 
ATOM     11  C   UNL     1     -62.718 -46.659 -49.693  0.00  0.00    +0.000 C 
ENDROOT
BRANCH   7  14
ATOM     12  O   UNL     1     -65.794 -48.866 -55.110  0.00  0.00    +0.000 OA
ATOM     13  N   UNL     1     -64.170 -49.973 -53.908  0.00  0.00    +0.000 N 
ATOM     14  C   UNL     1     -64.827 -48.844 -54.353  0.00  0.00    +0.000 C 
ATOM     15  H   UNL     1     -63.641 -49.978 -53.045  0.00  0.00    +0.000 HD
BRANCH  13  16
ATOM     16  O   UNL     1     -64.865 -51.175 -54.164  0.00  0.00    +0.000 OA
BRANCH  16  17
ATOM     17  C   UNL     1     -65.560 -51.445 -53.061  0.00  0.00    +0.000 C 
ATOM     18  C   UNL     1     -66.354 -51.769 -51.791  0.00  0.00    +0.000 C 
BRANCH  18  19
ATOM     19  O   UNL     1     -67.038 -52.056 -50.689  0.00  0.00    +0.000 OA
ATOM     20  H   UNL     1     -66.495 -51.878 -49.902  0.00  0.00    +0.000 HD
ENDBRANCH  18  19
ENDBRANCH  16  17
ENDBRANCH  13  16
ENDBRANCH   7  14
BRANCH   6  21
ATOM     21  N   UNL     1     -64.742 -46.465 -56.040  0.00  0.00    +0.000 N 
ATOM     22  H   UNL     1     -65.707 -46.108 -56.127  0.00  0.00    +0.000 HD
BRANCH  21  25
ATOM     23 BR   UNL     1     -62.012 -46.801 -61.482  0.00  0.00    +0.000 Br
ATOM     24  F   UNL     1     -66.147 -46.971 -58.358  0.00  0.00    +0.000 F 
ATOM     25  C   UNL     1     -64.085 -46.496 -57.287  0.00  0.00    +0.000 A 
ATOM     26  C   UNL     1     -64.820 -46.783 -58.449  0.00  0.00    +0.000 A 
ATOM     27  C   UNL     1     -62.705 -46.329 -57.426  0.00  0.00    +0.000 A 
ATOM     28  C   UNL     1     -64.219 -46.874 -59.700  0.00  0.00    +0.000 A 
ATOM     29  C   UNL     1     -62.084 -46.415 -58.671  0.00  0.00    +0.000 A 
ATOM     30  C   UNL     1     -62.848 -46.687 -59.800  0.00  0.00    +0.000 A 
ENDBRANCH  21  25
ENDBRANCH   6  21
TORSDOF 6
ENDMDL
MODEL 3
REMARK VINA RESULT:      -5.2      4.216      8.397
REMARK  Name = 10288191_Binimetinib.pdbqt.pdb
REMARK  6 active torsions:
REMARK  status: ('A' for Active; 'I' for Inactive)
REMARK    1  A    between atoms: C_6  and  N_21
REMARK    2  A    between atoms: C_7  and  C_14
REMARK    3  A    between atoms: N_13  and  O_16
REMARK    4  A    between atoms: O_16  and  C_17
REMARK    5  A    between atoms: C_18  and  O_19
REMARK    6  A    between atoms: N_21  and  C_25
REMARK                            x       y       z     vdW  Elec       q    Type
REMARK                         _______ _______ _______ _____ _____    ______ ____
ROOT
ATOM      1  F   UNL     1     -67.389 -57.921 -32.246  0.00  0.00    +0.000 F 
ATOM      2  N   UNL     1     -68.428 -59.032 -36.503  0.00  0.00    +0.000 N 
ATOM      3  N   UNL     1     -67.089 -59.385 -34.784  0.00  0.00    +0.000 NA
ATOM      4  C   UNL     1     -68.898 -58.201 -35.527  0.00  0.00    +0.000 A 
ATOM      5  C   UNL     1     -68.045 -58.442 -34.454  0.00  0.00    +0.000 A 
ATOM      6  C   UNL     1     -69.309 -56.800 -33.133  0.00  0.00    +0.000 A 
ATOM      7  C   UNL     1     -70.142 -56.581 -34.261  0.00  0.00    +0.000 A 
ATOM      8  C   UNL     1     -69.944 -57.279 -35.467  0.00  0.00    +0.000 A 
ATOM      9  C   UNL     1     -68.254 -57.734 -33.255  0.00  0.00    +0.000 A 
ATOM     10  C   UNL     1     -67.352 -59.723 -36.033  0.00  0.00    +0.000 A 
ATOM     11  C   UNL     1     -68.983 -59.176 -37.808  0.00  0.00    +0.000 C 
ENDROOT
BRANCH   7  14
ATOM     12  O   UNL     1     -72.019 -55.551 -33.269  0.00  0.00    +0.000 OA
ATOM     13  N   UNL     1     -71.336 -54.716 -35.305  0.00  0.00    +0.000 N 
ATOM     14  C   UNL     1     -71.250 -55.573 -34.227  0.00  0.00    +0.000 C 
ATOM     15  H   UNL     1     -70.959 -54.958 -36.213  0.00  0.00    +0.000 HD
BRANCH  13  16
ATOM     16  O   UNL     1     -72.545 -53.989 -35.361  0.00  0.00    +0.000 OA
BRANCH  16  17
ATOM     17  C   UNL     1     -72.253 -52.820 -35.925  0.00  0.00    +0.000 C 
ATOM     18  C   UNL     1     -71.928 -51.469 -36.572  0.00  0.00    +0.000 C 
BRANCH  18  19
ATOM     19  O   UNL     1     -71.654 -50.295 -37.130  0.00  0.00    +0.000 OA
ATOM     20  H   UNL     1     -70.692 -50.162 -37.175  0.00  0.00    +0.000 HD
ENDBRANCH  18  19
ENDBRANCH  16  17
ENDBRANCH  13  16
ENDBRANCH   7  14
BRANCH   6  21
ATOM     21  N   UNL     1     -69.558 -56.117 -31.914  0.00  0.00    +0.000 N 
ATOM     22  H   UNL     1     -69.491 -55.092 -32.002  0.00  0.00    +0.000 HD
BRANCH  21  25
ATOM     23 BR   UNL     1     -72.516 -57.680 -26.816  0.00  0.00    +0.000 Br
ATOM     24  F   UNL     1     -69.680 -54.453 -29.719  0.00  0.00    +0.000 F 
ATOM     25  C   UNL     1     -70.285 -56.494 -30.765  0.00  0.00    +0.000 A 
ATOM     26  C   UNL     1     -70.307 -55.639 -29.651  0.00  0.00    +0.000 A 
ATOM     27  C   UNL     1     -70.933 -57.725 -30.643  0.00  0.00    +0.000 A 
ATOM     28  C   UNL     1     -70.967 -55.976 -28.474  0.00  0.00    +0.000 A 
ATOM     29  C   UNL     1     -71.601 -58.081 -29.472  0.00  0.00    +0.000 A 
ATOM     30  C   UNL     1     -71.613 -57.202 -28.396  0.00  0.00    +0.000 A 
ENDBRANCH  21  25
ENDBRANCH   6  21
TORSDOF 6
ENDMDL
MODEL 4
REMARK VINA RESULT:      -5.1     13.079     14.760
REMARK  Name = 10288191_Binimetinib.pdbqt.pdb
REMARK  6 active torsions:
REMARK  status: ('A' for Active; 'I' for Inactive)
REMARK    1  A    between atoms: C_6  and  N_21
REMARK    2  A    between atoms: C_7  and  C_14
REMARK    3  A    between atoms: N_13  and  O_16
REMARK    4  A    between atoms: O_16  and  C_17
REMARK    5  A    between atoms: C_18  and  O_19
REMARK    6  A    between atoms: N_21  and  C_25
REMARK                            x       y       z     vdW  Elec       q    Type
REMARK                         _______ _______ _______ _____ _____    ______ ____
ROOT
ATOM      1  F   UNL     1     -64.180 -50.076 -20.497  0.00  0.00    +0.000 F 
ATOM      2  N   UNL     1     -61.715 -53.630 -21.808  0.00  0.00    +0.000 N 
ATOM      3  N   UNL     1     -62.248 -51.523 -22.185  0.00  0.00    +0.000 NA
ATOM      4  C   UNL     1     -62.597 -53.319 -20.815  0.00  0.00    +0.000 A 
ATOM      5  C   UNL     1     -62.917 -51.988 -21.068  0.00  0.00    +0.000 A 
ATOM      6  C   UNL     1     -64.400 -52.013 -19.108  0.00  0.00    +0.000 A 
ATOM      7  C   UNL     1     -64.052 -53.374 -18.903  0.00  0.00    +0.000 A 
ATOM      8  C   UNL     1     -63.149 -54.038 -19.753  0.00  0.00    +0.000 A 
ATOM      9  C   UNL     1     -63.825 -51.338 -20.210  0.00  0.00    +0.000 A 
ATOM     10  C   UNL     1     -61.527 -52.544 -22.607  0.00  0.00    +0.000 A 
ATOM     11  C   UNL     1     -61.069 -54.890 -21.977  0.00  0.00    +0.000 C 
ENDROOT
BRANCH   7  14
ATOM     12  O   UNL     1     -65.876 -54.196 -17.651  0.00  0.00    +0.000 OA
ATOM     13  N   UNL     1     -63.775 -54.844 -16.964  0.00  0.00    +0.000 N 
ATOM     14  C   UNL     1     -64.656 -54.172 -17.788  0.00  0.00    +0.000 C 
ATOM     15  H   UNL     1     -62.814 -54.546 -16.853  0.00  0.00    +0.000 HD
BRANCH  13  16
ATOM     16  O   UNL     1     -64.365 -55.338 -15.780  0.00  0.00    +0.000 OA
BRANCH  16  17
ATOM     17  C   UNL     1     -64.145 -56.651 -15.773  0.00  0.00    +0.000 C 
ATOM     18  C   UNL     1     -63.901 -58.164 -15.774  0.00  0.00    +0.000 C 
BRANCH  18  19
ATOM     19  O   UNL     1     -63.695 -59.476 -15.782  0.00  0.00    +0.000 OA
ATOM     20  H   UNL     1     -62.803 -59.673 -16.115  0.00  0.00    +0.000 HD
ENDBRANCH  18  19
ENDBRANCH  16  17
ENDBRANCH  13  16
ENDBRANCH   7  14
BRANCH   6  21
ATOM     21  N   UNL     1     -65.278 -51.354 -18.210  0.00  0.00    +0.000 N 
ATOM     22  H   UNL     1     -64.786 -50.863 -17.447  0.00  0.00    +0.000 HD
BRANCH  21  25
ATOM     23 BR   UNL     1     -70.996 -49.293 -18.704  0.00  0.00    +0.000 Br
ATOM     24  F   UNL     1     -66.330 -49.506 -16.453  0.00  0.00    +0.000 F 
ATOM     25  C   UNL     1     -66.592 -50.868 -18.377  0.00  0.00    +0.000 A 
ATOM     26  C   UNL     1     -67.112 -49.948 -17.451  0.00  0.00    +0.000 A 
ATOM     27  C   UNL     1     -67.447 -51.316 -19.387  0.00  0.00    +0.000 A 
ATOM     28  C   UNL     1     -68.415 -49.470 -17.538  0.00  0.00    +0.000 A 
ATOM     29  C   UNL     1     -68.757 -50.848 -19.491  0.00  0.00    +0.000 A 
ATOM     30  C   UNL     1     -69.230 -49.927 -18.564  0.00  0.00    +0.000 A 
ENDBRANCH  21  25
ENDBRANCH   6  21
TORSDOF 6
ENDMDL
MODEL 5
REMARK VINA RESULT:      -5.1      4.936      7.601
REMARK  Name = 10288191_Binimetinib.pdbqt.pdb
REMARK  6 active torsions:
REMARK  status: ('A' for Active; 'I' for Inactive)
REMARK    1  A    between atoms: C_6  and  N_21
REMARK    2  A    between atoms: C_7  and  C_14
REMARK    3  A    between atoms: N_13  and  O_16
REMARK    4  A    between atoms: O_16  and  C_17
REMARK    5  A    between atoms: C_18  and  O_19
REMARK    6  A    between atoms: N_21  and  C_25
REMARK                            x       y       z     vdW  Elec       q    Type
REMARK                         _______ _______ _______ _____ _____    ______ ____
ROOT
ATOM      1  F   UNL     1     -74.954 -55.166 -27.568  0.00  0.00    +0.000 F 
ATOM      2  N   UNL     1     -71.343 -55.426 -30.274  0.00  0.00    +0.000 N 
ATOM      3  N   UNL     1     -73.249 -54.400 -29.844  0.00  0.00    +0.000 NA
ATOM      4  C   UNL     1     -71.813 -56.037 -29.147  0.00  0.00    +0.000 A 
ATOM      5  C   UNL     1     -73.010 -55.374 -28.891  0.00  0.00    +0.000 A 
ATOM      6  C   UNL     1     -73.331 -56.800 -26.916  0.00  0.00    +0.000 A 
ATOM      7  C   UNL     1     -72.111 -57.454 -27.229  0.00  0.00    +0.000 A 
ATOM      8  C   UNL     1     -71.341 -57.079 -28.346  0.00  0.00    +0.000 A 
ATOM      9  C   UNL     1     -73.770 -55.762 -27.772  0.00  0.00    +0.000 A 
ATOM     10  C   UNL     1     -72.217 -54.458 -30.665  0.00  0.00    +0.000 A 
ATOM     11  C   UNL     1     -70.117 -55.734 -30.933  0.00  0.00    +0.000 C 
ENDROOT
BRANCH   7  14
ATOM     12  O   UNL     1     -70.692 -58.402 -25.599  0.00  0.00    +0.000 OA
ATOM     13  N   UNL     1     -72.210 -59.818 -26.599  0.00  0.00    +0.000 N 
ATOM     14  C   UNL     1     -71.603 -58.594 -26.400  0.00  0.00    +0.000 C 
ATOM     15  H   UNL     1     -72.676 -60.048 -27.467  0.00  0.00    +0.000 HD
BRANCH  13  16
ATOM     16  O   UNL     1     -71.517 -60.899 -26.014  0.00  0.00    +0.000 OA
BRANCH  16  17
ATOM     17  C   UNL     1     -72.323 -61.397 -25.079  0.00  0.00    +0.000 C 
ATOM     18  C   UNL     1     -73.245 -61.962 -23.993  0.00  0.00    +0.000 C 
BRANCH  18  19
ATOM     19  O   UNL     1     -74.041 -62.446 -23.046  0.00  0.00    +0.000 OA
ATOM     20  H   UNL     1     -74.263 -63.374 -23.236  0.00  0.00    +0.000 HD
ENDBRANCH  18  19
ENDBRANCH  16  17
ENDBRANCH  13  16
ENDBRANCH   7  14
BRANCH   6  21
ATOM     21  N   UNL     1     -74.065 -57.167 -25.758  0.00  0.00    +0.000 N 
ATOM     22  H   UNL     1     -74.571 -58.060 -25.864  0.00  0.00    +0.000 HD
BRANCH  21  25
ATOM     23 BR   UNL     1     -73.265 -55.462 -19.958  0.00  0.00    +0.000 Br
ATOM     24  F   UNL     1     -74.881 -54.703 -24.827  0.00  0.00    +0.000 F 
ATOM     25  C   UNL     1     -73.901 -56.820 -24.401  0.00  0.00    +0.000 A 
ATOM     26  C   UNL     1     -74.300 -55.548 -23.959  0.00  0.00    +0.000 A 
ATOM     27  C   UNL     1     -73.283 -57.658 -23.470  0.00  0.00    +0.000 A 
ATOM     28  C   UNL     1     -74.121 -55.133 -22.644  0.00  0.00    +0.000 A 
ATOM     29  C   UNL     1     -73.095 -57.261 -22.147  0.00  0.00    +0.000 A 
ATOM     30  C   UNL     1     -73.517 -56.000 -21.744  0.00  0.00    +0.000 A 
ENDBRANCH  21  25
ENDBRANCH   6  21
TORSDOF 6
ENDMDL
MODEL 6
REMARK VINA RESULT:      -5.1     13.908     15.981
REMARK  Name = 10288191_Binimetinib.pdbqt.pdb
REMARK  6 active torsions:
REMARK  status: ('A' for Active; 'I' for Inactive)
REMARK    1  A    between atoms: C_6  and  N_21
REMARK    2  A    between atoms: C_7  and  C_14
REMARK    3  A    between atoms: N_13  and  O_16
REMARK    4  A    between atoms: O_16  and  C_17
REMARK    5  A    between atoms: C_18  and  O_19
REMARK    6  A    between atoms: N_21  and  C_25
REMARK                            x       y       z     vdW  Elec       q    Type
REMARK                         _______ _______ _______ _____ _____    ______ ____
ROOT
ATOM      1  F   UNL     1     -66.293 -54.948 -16.049  0.00  0.00    +0.000 F 
ATOM      2  N   UNL     1     -62.159 -56.748 -15.729  0.00  0.00    +0.000 N 
ATOM      3  N   UNL     1     -64.232 -56.754 -14.970  0.00  0.00    +0.000 NA
ATOM      4  C   UNL     1     -62.803 -55.812 -16.486  0.00  0.00    +0.000 A 
ATOM      5  C   UNL     1     -64.105 -55.835 -15.996  0.00  0.00    +0.000 A 
ATOM      6  C   UNL     1     -64.707 -54.097 -17.626  0.00  0.00    +0.000 A 
ATOM      7  C   UNL     1     -63.361 -54.102 -18.080  0.00  0.00    +0.000 A 
ATOM      8  C   UNL     1     -62.398 -54.959 -17.515  0.00  0.00    +0.000 A 
ATOM      9  C   UNL     1     -65.057 -54.970 -16.569  0.00  0.00    +0.000 A 
ATOM     10  C   UNL     1     -63.034 -57.291 -14.837  0.00  0.00    +0.000 A 
ATOM     11  C   UNL     1     -60.789 -57.121 -15.860  0.00  0.00    +0.000 C 
ENDROOT
BRANCH   7  14
ATOM     12  O   UNL     1     -62.914 -51.961 -18.964  0.00  0.00    +0.000 OA
ATOM     13  N   UNL     1     -62.483 -53.758 -20.339  0.00  0.00    +0.000 N 
ATOM     14  C   UNL     1     -62.901 -53.173 -19.161  0.00  0.00    +0.000 C 
ATOM     15  H   UNL     1     -62.802 -54.676 -20.622  0.00  0.00    +0.000 HD
BRANCH  13  16
ATOM     16  O   UNL     1     -62.334 -52.846 -21.407  0.00  0.00    +0.000 OA
BRANCH  16  17
ATOM     17  C   UNL     1     -62.027 -53.574 -22.479  0.00  0.00    +0.000 C 
ATOM     18  C   UNL     1     -61.663 -54.403 -23.715  0.00  0.00    +0.000 C 
BRANCH  18  19
ATOM     19  O   UNL     1     -61.340 -55.116 -24.788  0.00  0.00    +0.000 OA
ATOM     20  H   UNL     1     -61.542 -54.616 -25.597  0.00  0.00    +0.000 HD
ENDBRANCH  18  19
ENDBRANCH  16  17
ENDBRANCH  13  16
ENDBRANCH   7  14
BRANCH   6  21
ATOM     21  N   UNL     1     -65.668 -53.256 -18.243  0.00  0.00    +0.000 N 
ATOM     22  H   UNL     1     -66.215 -53.734 -18.976  0.00  0.00    +0.000 HD
BRANCH  21  25
ATOM     23 BR   UNL     1     -68.440 -48.119 -16.479  0.00  0.00    +0.000 Br
ATOM     24  F   UNL     1     -67.576 -52.009 -19.796  0.00  0.00    +0.000 F 
ATOM     25  C   UNL     1     -66.319 -52.091 -17.786  0.00  0.00    +0.000 A 
ATOM     26  C   UNL     1     -67.267 -51.461 -18.610  0.00  0.00    +0.000 A 
ATOM     27  C   UNL     1     -66.013 -51.474 -16.571  0.00  0.00    +0.000 A 
ATOM     28  C   UNL     1     -67.906 -50.284 -18.234  0.00  0.00    +0.000 A 
ATOM     29  C   UNL     1     -66.643 -50.295 -16.176  0.00  0.00    +0.000 A 
ATOM     30  C   UNL     1     -67.586 -49.709 -17.011  0.00  0.00    +0.000 A 
ENDBRANCH  21  25
ENDBRANCH   6  21
TORSDOF 6
ENDMDL
MODEL 7
REMARK VINA RESULT:      -5.1     16.205     18.741
REMARK  Name = 10288191_Binimetinib.pdbqt.pdb
REMARK  6 active torsions:
REMARK  status: ('A' for Active; 'I' for Inactive)
REMARK    1  A    between atoms: C_6  and  N_21
REMARK    2  A    between atoms: C_7  and  C_14
REMARK    3  A    between atoms: N_13  and  O_16
REMARK    4  A    between atoms: O_16  and  C_17
REMARK    5  A    between atoms: C_18  and  O_19
REMARK    6  A    between atoms: N_21  and  C_25
REMARK                            x       y       z     vdW  Elec       q    Type
REMARK                         _______ _______ _______ _____ _____    ______ ____
ROOT
ATOM      1  F   UNL     1     -64.637 -58.991 -16.036  0.00  0.00    +0.000 F 
ATOM      2  N   UNL     1     -65.417 -60.698 -11.924  0.00  0.00    +0.000 N 
ATOM      3  N   UNL     1     -65.552 -61.016 -14.104  0.00  0.00    +0.000 NA
ATOM      4  C   UNL     1     -64.876 -59.569 -12.468  0.00  0.00    +0.000 A 
ATOM      5  C   UNL     1     -64.967 -59.791 -13.839  0.00  0.00    +0.000 A 
ATOM      6  C   UNL     1     -63.916 -57.603 -14.224  0.00  0.00    +0.000 A 
ATOM      7  C   UNL     1     -63.860 -57.419 -12.817  0.00  0.00    +0.000 A 
ATOM      8  C   UNL     1     -64.339 -58.399 -11.928  0.00  0.00    +0.000 A 
ATOM      9  C   UNL     1     -64.486 -58.800 -14.716  0.00  0.00    +0.000 A 
ATOM     10  C   UNL     1     -65.810 -61.540 -12.920  0.00  0.00    +0.000 A 
ATOM     11  C   UNL     1     -65.536 -60.970 -10.530  0.00  0.00    +0.000 C 
ENDROOT
BRANCH   7  14
ATOM     12  O   UNL     1     -63.865 -55.086 -12.462  0.00  0.00    +0.000 OA
ATOM     13  N   UNL     1     -62.203 -56.289 -11.412  0.00  0.00    +0.000 N 
ATOM     14  C   UNL     1     -63.316 -56.158 -12.218  0.00  0.00    +0.000 C 
ATOM     15  H   UNL     1     -61.567 -57.071 -11.503  0.00  0.00    +0.000 HD
BRANCH  13  16
ATOM     16  O   UNL     1     -61.571 -55.064 -11.111  0.00  0.00    +0.000 OA
BRANCH  16  17
ATOM     17  C   UNL     1     -60.311 -55.361 -10.799  0.00  0.00    +0.000 C 
ATOM     18  C   UNL     1     -58.857 -55.703 -10.453  0.00  0.00    +0.000 C 
BRANCH  18  19
ATOM     19  O   UNL     1     -57.595 -55.997 -10.161  0.00  0.00    +0.000 OA
ATOM     20  H   UNL     1     -57.096 -56.177 -10.976  0.00  0.00    +0.000 HD
ENDBRANCH  18  19
ENDBRANCH  16  17
ENDBRANCH  13  16
ENDBRANCH   7  14
BRANCH   6  21
ATOM     21  N   UNL     1     -63.385 -56.620 -15.098  0.00  0.00    +0.000 N 
ATOM     22  H   UNL     1     -62.428 -56.834 -15.417  0.00  0.00    +0.000 HD
BRANCH  21  25
ATOM     23 BR   UNL     1     -65.922 -52.443 -18.745  0.00  0.00    +0.000 Br
ATOM     24  F   UNL     1     -62.086 -55.626 -17.318  0.00  0.00    +0.000 F 
ATOM     25  C   UNL     1     -64.018 -55.683 -15.942  0.00  0.00    +0.000 A 
ATOM     26  C   UNL     1     -63.322 -55.173 -17.051  0.00  0.00    +0.000 A 
ATOM     27  C   UNL     1     -65.292 -55.169 -15.692  0.00  0.00    +0.000 A 
ATOM     28  C   UNL     1     -63.875 -54.213 -17.892  0.00  0.00    +0.000 A 
ATOM     29  C   UNL     1     -65.865 -54.208 -16.524  0.00  0.00    +0.000 A 
ATOM     30  C   UNL     1     -65.150 -53.738 -17.619  0.00  0.00    +0.000 A 
ENDBRANCH  21  25
ENDBRANCH   6  21
TORSDOF 6
ENDMDL
MODEL 8
REMARK VINA RESULT:      -5.0     37.252     40.875
REMARK  Name = 10288191_Binimetinib.pdbqt.pdb
REMARK  6 active torsions:
REMARK  status: ('A' for Active; 'I' for Inactive)
REMARK    1  A    between atoms: C_6  and  N_21
REMARK    2  A    between atoms: C_7  and  C_14
REMARK    3  A    between atoms: N_13  and  O_16
REMARK    4  A    between atoms: O_16  and  C_17
REMARK    5  A    between atoms: C_18  and  O_19
REMARK    6  A    between atoms: N_21  and  C_25
REMARK                            x       y       z     vdW  Elec       q    Type
REMARK                         _______ _______ _______ _____ _____    ______ ____
ROOT
ATOM      1  F   UNL     1     -64.167 -61.025 -73.101  0.00  0.00    +0.000 F 
ATOM      2  N   UNL     1     -68.329 -59.732 -71.900  0.00  0.00    +0.000 N 
ATOM      3  N   UNL     1     -66.793 -59.746 -73.484  0.00  0.00    +0.000 NA
ATOM      4  C   UNL     1     -67.288 -60.431 -71.360  0.00  0.00    +0.000 A 
ATOM      5  C   UNL     1     -66.334 -60.431 -72.374  0.00  0.00    +0.000 A 
ATOM      6  C   UNL     1     -64.843 -61.732 -70.916  0.00  0.00    +0.000 A 
ATOM      7  C   UNL     1     -65.843 -61.690 -69.909  0.00  0.00    +0.000 A 
ATOM      8  C   UNL     1     -67.073 -61.039 -70.122  0.00  0.00    +0.000 A 
ATOM      9  C   UNL     1     -65.108 -61.084 -72.145  0.00  0.00    +0.000 A 
ATOM     10  C   UNL     1     -68.005 -59.338 -73.163  0.00  0.00    +0.000 A 
ATOM     11  C   UNL     1     -69.573 -59.469 -71.256  0.00  0.00    +0.000 C 
ENDROOT
BRANCH   7  14
ATOM     12  O   UNL     1     -65.424 -63.520 -68.480  0.00  0.00    +0.000 OA
ATOM     13  N   UNL     1     -65.654 -61.457 -67.479  0.00  0.00    +0.000 N 
ATOM     14  C   UNL     1     -65.620 -62.310 -68.564  0.00  0.00    +0.000 C 
ATOM     15  H   UNL     1     -66.154 -60.577 -67.506  0.00  0.00    +0.000 HD
BRANCH  13  16
ATOM     16  O   UNL     1     -65.724 -62.120 -66.235  0.00  0.00    +0.000 OA
BRANCH  16  17
ATOM     17  C   UNL     1     -66.427 -61.328 -65.429  0.00  0.00    +0.000 C 
ATOM     18  C   UNL     1     -67.237 -60.406 -64.511  0.00  0.00    +0.000 C 
BRANCH  18  19
ATOM     19  O   UNL     1     -67.939 -59.601 -63.721  0.00  0.00    +0.000 OA
ATOM     20  H   UNL     1     -68.305 -58.862 -64.236  0.00  0.00    +0.000 HD
ENDBRANCH  18  19
ENDBRANCH  16  17
ENDBRANCH  13  16
ENDBRANCH   7  14
BRANCH   6  21
ATOM     21  N   UNL     1     -63.630 -62.433 -70.693  0.00  0.00    +0.000 N 
ATOM     22  H   UNL     1     -63.128 -62.118 -69.849  0.00  0.00    +0.000 HD
BRANCH  21  25
ATOM     23 BR   UNL     1     -61.585 -67.874 -72.539  0.00  0.00    +0.000 Br
ATOM     24  F   UNL     1     -61.111 -63.352 -70.046  0.00  0.00    +0.000 F 
ATOM     25  C   UNL     1     -63.204 -63.714 -71.103  0.00  0.00    +0.000 A 
ATOM     26  C   UNL     1     -61.906 -64.146 -70.783  0.00  0.00    +0.000 A 
ATOM     27  C   UNL     1     -63.987 -64.563 -71.888  0.00  0.00    +0.000 A 
ATOM     28  C   UNL     1     -61.413 -65.378 -71.200  0.00  0.00    +0.000 A 
ATOM     29  C   UNL     1     -63.512 -65.803 -72.315  0.00  0.00    +0.000 A 
ATOM     30  C   UNL     1     -62.228 -66.200 -71.966  0.00  0.00    +0.000 A 
ENDBRANCH  21  25
ENDBRANCH   6  21
TORSDOF 6
ENDMDL
MODEL 9
REMARK VINA RESULT:      -4.9     31.088     33.044
REMARK  Name = 10288191_Binimetinib.pdbqt.pdb
REMARK  6 active torsions:
REMARK  status: ('A' for Active; 'I' for Inactive)
REMARK    1  A    between atoms: C_6  and  N_21
REMARK    2  A    between atoms: C_7  and  C_14
REMARK    3  A    between atoms: N_13  and  O_16
REMARK    4  A    between atoms: O_16  and  C_17
REMARK    5  A    between atoms: C_18  and  O_19
REMARK    6  A    between atoms: N_21  and  C_25
REMARK                            x       y       z     vdW  Elec       q    Type
REMARK                         _______ _______ _______ _____ _____    ______ ____
ROOT
ATOM      1  F   UNL     1     -60.965 -44.306 -60.986  0.00  0.00    +0.000 F 
ATOM      2  N   UNL     1     -58.602 -40.569 -60.047  0.00  0.00    +0.000 N 
ATOM      3  N   UNL     1     -59.737 -41.694 -61.570  0.00  0.00    +0.000 NA
ATOM      4  C   UNL     1     -59.028 -41.691 -59.396  0.00  0.00    +0.000 A 
ATOM      5  C   UNL     1     -59.743 -42.382 -60.370  0.00  0.00    +0.000 A 
ATOM      6  C   UNL     1     -60.214 -44.141 -58.719  0.00  0.00    +0.000 A 
ATOM      7  C   UNL     1     -59.461 -43.404 -57.767  0.00  0.00    +0.000 A 
ATOM      8  C   UNL     1     -58.862 -42.174 -58.096  0.00  0.00    +0.000 A 
ATOM      9  C   UNL     1     -60.334 -43.613 -60.026  0.00  0.00    +0.000 A 
ATOM     10  C   UNL     1     -59.038 -40.599 -61.337  0.00  0.00    +0.000 A 
ATOM     11  C   UNL     1     -57.836 -39.516 -59.468  0.00  0.00    +0.000 C 
ENDROOT
BRANCH   7  14
ATOM     12  O   UNL     1     -60.041 -43.617 -55.489  0.00  0.00    +0.000 OA
ATOM     13  N   UNL     1     -58.139 -44.719 -56.181  0.00  0.00    +0.000 N 
ATOM     14  C   UNL     1     -59.247 -43.919 -56.377  0.00  0.00    +0.000 C 
ATOM     15  H   UNL     1     -57.329 -44.669 -56.786  0.00  0.00    +0.000 HD
BRANCH  13  16
ATOM     16  O   UNL     1     -57.828 -44.939 -54.821  0.00  0.00    +0.000 OA
BRANCH  16  17
ATOM     17  C   UNL     1     -56.665 -44.330 -54.601  0.00  0.00    +0.000 C 
ATOM     18  C   UNL     1     -55.323 -43.630 -54.362  0.00  0.00    +0.000 C 
BRANCH  18  19
ATOM     19  O   UNL     1     -54.158 -43.024 -54.162  0.00  0.00    +0.000 OA
ATOM     20  H   UNL     1     -54.281 -42.059 -54.149  0.00  0.00    +0.000 HD
ENDBRANCH  18  19
ENDBRANCH  16  17
ENDBRANCH  13  16
ENDBRANCH   7  14
BRANCH   6  21
ATOM     21  N   UNL     1     -60.845 -45.356 -58.349  0.00  0.00    +0.000 N 
ATOM     22  H   UNL     1     -60.449 -45.776 -57.494  0.00  0.00    +0.000 HD
BRANCH  21  25
ATOM     23 BR   UNL     1     -66.378 -47.488 -59.777  0.00  0.00    +0.000 Br
ATOM     24  F   UNL     1     -61.244 -47.136 -60.417  0.00  0.00    +0.000 F 
ATOM     25  C   UNL     1     -62.133 -45.860 -58.626  0.00  0.00    +0.000 A 
ATOM     26  C   UNL     1     -62.312 -46.744 -59.703  0.00  0.00    +0.000 A 
ATOM     27  C   UNL     1     -63.274 -45.463 -57.925  0.00  0.00    +0.000 A 
ATOM     28  C   UNL     1     -63.564 -47.237 -60.054  0.00  0.00    +0.000 A 
ATOM     29  C   UNL     1     -64.538 -45.947 -58.261  0.00  0.00    +0.000 A 
ATOM     30  C   UNL     1     -64.672 -46.832 -59.324  0.00  0.00    +0.000 A 
ENDBRANCH  21  25
ENDBRANCH   6  21
TORSDOF 6
ENDMDL
