MODEL 1
REMARK VINA RESULT:      -5.4      0.000      0.000
REMARK  Name = 10639_Physcion.pdbqt.pdb
REMARK  3 active torsions:
REMARK  status: ('A' for Active; 'I' for Inactive)
REMARK    1  A    between atoms: C_10  and  O_18
REMARK    2  A    between atoms: C_12  and  O_20
REMARK    3  A    between atoms: C_15  and  O_22
REMARK                            x       y       z     vdW  Elec       q    Type
REMARK                         _______ _______ _______ _____ _____    ______ ____
ROOT
ATOM      1  O   UNL     1     -74.603 -55.807 -26.199  0.00  0.00    +0.000 OA
ATOM      2  O   UNL     1     -71.855 -59.053 -22.991  0.00  0.00    +0.000 OA
ATOM      3  C   UNL     1     -73.182 -57.140 -23.207  0.00  0.00    +0.000 A 
ATOM      4  C   UNL     1     -73.897 -56.297 -24.053  0.00  0.00    +0.000 A 
ATOM      5  C   UNL     1     -73.253 -57.769 -26.052  0.00  0.00    +0.000 A 
ATOM      6  C   UNL     1     -72.544 -58.597 -25.180  0.00  0.00    +0.000 A 
ATOM      7  C   UNL     1     -73.958 -56.582 -25.503  0.00  0.00    +0.000 C 
ATOM      8  C   UNL     1     -72.482 -58.315 -23.738  0.00  0.00    +0.000 C 
ATOM      9  C   UNL     1     -73.114 -56.887 -21.835  0.00  0.00    +0.000 A 
ATOM     10  C   UNL     1     -74.551 -55.186 -23.502  0.00  0.00    +0.000 A 
ATOM     11  C   UNL     1     -73.767 -55.780 -21.304  0.00  0.00    +0.000 A 
ATOM     12  C   UNL     1     -73.268 -58.099 -27.413  0.00  0.00    +0.000 A 
ATOM     13  C   UNL     1     -71.864 -59.726 -25.651  0.00  0.00    +0.000 A 
ATOM     14  C   UNL     1     -74.487 -54.926 -22.132  0.00  0.00    +0.000 A 
ATOM     15  C   UNL     1     -71.884 -60.047 -27.004  0.00  0.00    +0.000 A 
ATOM     16  C   UNL     1     -72.590 -59.226 -27.881  0.00  0.00    +0.000 A 
ATOM     17  C   UNL     1     -73.693 -55.510 -19.831  0.00  0.00    +0.000 C 
ENDROOT
BRANCH  10  18
ATOM     18  O   UNL     1     -75.278 -54.301 -24.251  0.00  0.00    +0.000 OA
ATOM     19  H   UNL     1     -74.658 -53.744 -24.779  0.00  0.00    +0.000 HD
ENDBRANCH  10  18
BRANCH  12  20
ATOM     20  O   UNL     1     -73.941 -57.337 -28.324  0.00  0.00    +0.000 OA
ATOM     21  H   UNL     1     -74.554 -56.734 -27.867  0.00  0.00    +0.000 HD
ENDBRANCH  12  20
BRANCH  15  22
ATOM     22  O   UNL     1     -71.187 -61.173 -27.364  0.00  0.00    +0.000 OA
ATOM     23  C   UNL     1     -71.649 -61.812 -28.523  0.00  0.00    +0.000 C 
ENDBRANCH  15  22
TORSDOF 3
ENDMDL
MODEL 2
REMARK VINA RESULT:      -5.3     33.058     35.878
REMARK  Name = 10639_Physcion.pdbqt.pdb
REMARK  3 active torsions:
REMARK  status: ('A' for Active; 'I' for Inactive)
REMARK    1  A    between atoms: C_10  and  O_18
REMARK    2  A    between atoms: C_12  and  O_20
REMARK    3  A    between atoms: C_15  and  O_22
REMARK                            x       y       z     vdW  Elec       q    Type
REMARK                         _______ _______ _______ _____ _____    ______ ____
ROOT
ATOM      1  O   UNL     1     -64.666 -46.130 -55.737  0.00  0.00    +0.000 OA
ATOM      2  O   UNL     1     -66.667 -47.941 -60.330  0.00  0.00    +0.000 OA
ATOM      3  C   UNL     1     -64.825 -47.083 -59.175  0.00  0.00    +0.000 A 
ATOM      4  C   UNL     1     -64.310 -46.611 -57.971  0.00  0.00    +0.000 A 
ATOM      5  C   UNL     1     -66.586 -47.000 -56.855  0.00  0.00    +0.000 A 
ATOM      6  C   UNL     1     -67.075 -47.469 -58.075  0.00  0.00    +0.000 A 
ATOM      7  C   UNL     1     -65.172 -46.553 -56.770  0.00  0.00    +0.000 C 
ATOM      8  C   UNL     1     -66.220 -47.527 -59.270  0.00  0.00    +0.000 C 
ATOM      9  C   UNL     1     -64.025 -47.145 -60.319  0.00  0.00    +0.000 A 
ATOM     10  C   UNL     1     -62.971 -46.198 -57.925  0.00  0.00    +0.000 A 
ATOM     11  C   UNL     1     -62.699 -46.731 -60.258  0.00  0.00    +0.000 A 
ATOM     12  C   UNL     1     -67.458 -46.973 -55.759  0.00  0.00    +0.000 A 
ATOM     13  C   UNL     1     -68.400 -47.900 -58.204  0.00  0.00    +0.000 A 
ATOM     14  C   UNL     1     -62.167 -46.256 -59.064  0.00  0.00    +0.000 A 
ATOM     15  C   UNL     1     -69.260 -47.870 -57.111  0.00  0.00    +0.000 A 
ATOM     16  C   UNL     1     -68.780 -47.404 -55.889  0.00  0.00    +0.000 A 
ATOM     17  C   UNL     1     -61.843 -46.798 -61.487  0.00  0.00    +0.000 C 
ENDROOT
BRANCH  10  18
ATOM     18  O   UNL     1     -62.376 -45.720 -56.789  0.00  0.00    +0.000 OA
ATOM     19  H   UNL     1     -62.994 -45.841 -56.030  0.00  0.00    +0.000 HD
ENDBRANCH  10  18
BRANCH  12  20
ATOM     20  O   UNL     1     -67.052 -46.528 -54.534  0.00  0.00    +0.000 OA
ATOM     21  H   UNL     1     -66.700 -45.623 -54.609  0.00  0.00    +0.000 HD
ENDBRANCH  12  20
BRANCH  15  22
ATOM     22  O   UNL     1     -70.539 -48.314 -57.340  0.00  0.00    +0.000 OA
ATOM     23  C   UNL     1     -70.652 -49.686 -57.603  0.00  0.00    +0.000 C 
ENDBRANCH  15  22
TORSDOF 3
ENDMDL
MODEL 3
REMARK VINA RESULT:      -5.2     11.529     12.966
REMARK  Name = 10639_Physcion.pdbqt.pdb
REMARK  3 active torsions:
REMARK  status: ('A' for Active; 'I' for Inactive)
REMARK    1  A    between atoms: C_10  and  O_18
REMARK    2  A    between atoms: C_12  and  O_20
REMARK    3  A    between atoms: C_15  and  O_22
REMARK                            x       y       z     vdW  Elec       q    Type
REMARK                         _______ _______ _______ _____ _____    ______ ____
ROOT
ATOM      1  O   UNL     1     -62.173 -54.934 -18.981  0.00  0.00    +0.000 OA
ATOM      2  O   UNL     1     -66.178 -54.684 -15.476  0.00  0.00    +0.000 OA
ATOM      3  C   UNL     1     -65.171 -53.812 -17.397  0.00  0.00    +0.000 A 
ATOM      4  C   UNL     1     -64.121 -53.884 -18.308  0.00  0.00    +0.000 A 
ATOM      5  C   UNL     1     -63.147 -55.873 -17.015  0.00  0.00    +0.000 A 
ATOM      6  C   UNL     1     -64.211 -55.777 -16.118  0.00  0.00    +0.000 A 
ATOM      7  C   UNL     1     -63.073 -54.916 -18.150  0.00  0.00    +0.000 C 
ATOM      8  C   UNL     1     -65.253 -54.752 -16.274  0.00  0.00    +0.000 C 
ATOM      9  C   UNL     1     -66.169 -52.844 -17.532  0.00  0.00    +0.000 A 
ATOM     10  C   UNL     1     -64.082 -52.966 -19.367  0.00  0.00    +0.000 A 
ATOM     11  C   UNL     1     -66.116 -51.940 -18.588  0.00  0.00    +0.000 A 
ATOM     12  C   UNL     1     -62.191 -56.875 -16.804  0.00  0.00    +0.000 A 
ATOM     13  C   UNL     1     -64.322 -56.656 -15.035  0.00  0.00    +0.000 A 
ATOM     14  C   UNL     1     -65.075 -51.996 -19.508  0.00  0.00    +0.000 A 
ATOM     15  C   UNL     1     -63.369 -57.648 -14.831  0.00  0.00    +0.000 A 
ATOM     16  C   UNL     1     -62.303 -57.751 -15.723  0.00  0.00    +0.000 A 
ATOM     17  C   UNL     1     -67.189 -50.902 -18.730  0.00  0.00    +0.000 C 
ENDROOT
BRANCH  10  18
ATOM     18  O   UNL     1     -63.091 -52.957 -20.312  0.00  0.00    +0.000 OA
ATOM     19  H   UNL     1     -62.927 -52.027 -20.594  0.00  0.00    +0.000 HD
ENDBRANCH  10  18
BRANCH  12  20
ATOM     20  O   UNL     1     -61.123 -57.030 -17.640  0.00  0.00    +0.000 OA
ATOM     21  H   UNL     1     -60.495 -56.295 -17.518  0.00  0.00    +0.000 HD
ENDBRANCH  12  20
BRANCH  15  22
ATOM     22  O   UNL     1     -63.568 -58.458 -13.741  0.00  0.00    +0.000 OA
ATOM     23  C   UNL     1     -64.708 -59.271 -13.807  0.00  0.00    +0.000 C 
ENDBRANCH  15  22
TORSDOF 3
ENDMDL
MODEL 4
REMARK VINA RESULT:      -5.2     29.975     33.641
REMARK  Name = 10639_Physcion.pdbqt.pdb
REMARK  3 active torsions:
REMARK  status: ('A' for Active; 'I' for Inactive)
REMARK    1  A    between atoms: C_10  and  O_18
REMARK    2  A    between atoms: C_12  and  O_20
REMARK    3  A    between atoms: C_15  and  O_22
REMARK                            x       y       z     vdW  Elec       q    Type
REMARK                         _______ _______ _______ _____ _____    ______ ____
ROOT
ATOM      1  O   UNL     1     -63.663 -56.823 -56.440  0.00  0.00    +0.000 OA
ATOM      2  O   UNL     1     -58.407 -56.450 -55.652  0.00  0.00    +0.000 OA
ATOM      3  C   UNL     1     -60.209 -56.221 -57.123  0.00  0.00    +0.000 A 
ATOM      4  C   UNL     1     -61.584 -56.322 -57.320  0.00  0.00    +0.000 A 
ATOM      5  C   UNL     1     -61.869 -57.079 -54.887  0.00  0.00    +0.000 A 
ATOM      6  C   UNL     1     -60.489 -56.969 -54.718  0.00  0.00    +0.000 A 
ATOM      7  C   UNL     1     -62.461 -56.754 -56.211  0.00  0.00    +0.000 C 
ATOM      8  C   UNL     1     -59.615 -56.540 -55.820  0.00  0.00    +0.000 C 
ATOM      9  C   UNL     1     -59.366 -55.815 -58.160  0.00  0.00    +0.000 A 
ATOM     10  C   UNL     1     -62.109 -56.007 -58.582  0.00  0.00    +0.000 A 
ATOM     11  C   UNL     1     -59.902 -55.506 -59.405  0.00  0.00    +0.000 A 
ATOM     12  C   UNL     1     -62.640 -57.494 -53.793  0.00  0.00    +0.000 A 
ATOM     13  C   UNL     1     -59.886 -57.265 -53.490  0.00  0.00    +0.000 A 
ATOM     14  C   UNL     1     -61.273 -55.601 -59.622  0.00  0.00    +0.000 A 
ATOM     15  C   UNL     1     -60.658 -57.676 -52.407  0.00  0.00    +0.000 A 
ATOM     16  C   UNL     1     -62.037 -57.789 -52.568  0.00  0.00    +0.000 A 
ATOM     17  C   UNL     1     -58.995 -55.071 -60.517  0.00  0.00    +0.000 C 
ENDROOT
BRANCH  10  18
ATOM     18  O   UNL     1     -63.445 -56.075 -58.872  0.00  0.00    +0.000 OA
ATOM     19  H   UNL     1     -63.958 -55.768 -58.088  0.00  0.00    +0.000 HD
ENDBRANCH  10  18
BRANCH  12  20
ATOM     20  O   UNL     1     -63.995 -57.624 -53.882  0.00  0.00    +0.000 OA
ATOM     21  H   UNL     1     -64.312 -58.266 -53.222  0.00  0.00    +0.000 HD
ENDBRANCH  12  20
BRANCH  15  22
ATOM     22  O   UNL     1     -59.973 -57.942 -51.248  0.00  0.00    +0.000 OA
ATOM     23  C   UNL     1     -60.339 -57.154 -50.148  0.00  0.00    +0.000 C 
ENDBRANCH  15  22
TORSDOF 3
ENDMDL
MODEL 5
REMARK VINA RESULT:      -5.1      9.210     12.213
REMARK  Name = 10639_Physcion.pdbqt.pdb
REMARK  3 active torsions:
REMARK  status: ('A' for Active; 'I' for Inactive)
REMARK    1  A    between atoms: C_10  and  O_18
REMARK    2  A    between atoms: C_12  and  O_20
REMARK    3  A    between atoms: C_15  and  O_22
REMARK                            x       y       z     vdW  Elec       q    Type
REMARK                         _______ _______ _______ _____ _____    ______ ____
ROOT
ATOM      1  O   UNL     1     -67.212 -59.508 -34.715  0.00  0.00    +0.000 OA
ATOM      2  O   UNL     1     -70.767 -55.900 -36.365  0.00  0.00    +0.000 OA
ATOM      3  C   UNL     1     -69.620 -56.874 -34.577  0.00  0.00    +0.000 A 
ATOM      4  C   UNL     1     -68.690 -57.820 -34.155  0.00  0.00    +0.000 A 
ATOM      5  C   UNL     1     -68.349 -58.559 -36.586  0.00  0.00    +0.000 A 
ATOM      6  C   UNL     1     -69.285 -57.602 -36.981  0.00  0.00    +0.000 A 
ATOM      7  C   UNL     1     -68.023 -58.695 -35.143  0.00  0.00    +0.000 C 
ATOM      8  C   UNL     1     -69.950 -56.732 -35.999  0.00  0.00    +0.000 C 
ATOM      9  C   UNL     1     -70.260 -56.041 -33.657  0.00  0.00    +0.000 A 
ATOM     10  C   UNL     1     -68.405 -57.922 -32.785  0.00  0.00    +0.000 A 
ATOM     11  C   UNL     1     -69.967 -56.154 -32.302  0.00  0.00    +0.000 A 
ATOM     12  C   UNL     1     -67.756 -59.353 -37.577  0.00  0.00    +0.000 A 
ATOM     13  C   UNL     1     -69.625 -57.438 -38.328  0.00  0.00    +0.000 A 
ATOM     14  C   UNL     1     -69.041 -57.092 -31.860  0.00  0.00    +0.000 A 
ATOM     15  C   UNL     1     -69.032 -58.230 -39.306  0.00  0.00    +0.000 A 
ATOM     16  C   UNL     1     -68.096 -59.188 -38.921  0.00  0.00    +0.000 A 
ATOM     17  C   UNL     1     -70.655 -55.257 -31.316  0.00  0.00    +0.000 C 
ENDROOT
BRANCH  10  18
ATOM     18  O   UNL     1     -67.507 -58.820 -32.274  0.00  0.00    +0.000 OA
ATOM     19  H   UNL     1     -67.234 -58.520 -31.375  0.00  0.00    +0.000 HD
ENDBRANCH  10  18
BRANCH  12  20
ATOM     20  O   UNL     1     -66.832 -60.309 -37.267  0.00  0.00    +0.000 OA
ATOM     21  H   UNL     1     -66.431 -60.116 -36.401  0.00  0.00    +0.000 HD
ENDBRANCH  12  20
BRANCH  15  22
ATOM     22  O   UNL     1     -69.432 -57.991 -40.597  0.00  0.00    +0.000 OA
ATOM     23  C   UNL     1     -70.003 -56.730 -40.818  0.00  0.00    +0.000 C 
ENDBRANCH  15  22
TORSDOF 3
ENDMDL
MODEL 6
REMARK VINA RESULT:      -5.1     44.023     47.991
REMARK  Name = 10639_Physcion.pdbqt.pdb
REMARK  3 active torsions:
REMARK  status: ('A' for Active; 'I' for Inactive)
REMARK    1  A    between atoms: C_10  and  O_18
REMARK    2  A    between atoms: C_12  and  O_20
REMARK    3  A    between atoms: C_15  and  O_22
REMARK                            x       y       z     vdW  Elec       q    Type
REMARK                         _______ _______ _______ _____ _____    ______ ____
ROOT
ATOM      1  O   UNL     1     -68.667 -59.324 -71.998  0.00  0.00    +0.000 OA
ATOM      2  O   UNL     1     -64.200 -62.177 -72.533  0.00  0.00    +0.000 OA
ATOM      3  C   UNL     1     -65.832 -60.845 -73.547  0.00  0.00    +0.000 A 
ATOM      4  C   UNL     1     -66.999 -60.101 -73.398  0.00  0.00    +0.000 A 
ATOM      5  C   UNL     1     -67.037 -60.677 -70.899  0.00  0.00    +0.000 A 
ATOM      6  C   UNL     1     -65.867 -61.415 -71.078  0.00  0.00    +0.000 A 
ATOM      7  C   UNL     1     -67.642 -59.991 -72.071  0.00  0.00    +0.000 C 
ATOM      8  C   UNL     1     -65.226 -61.525 -72.397  0.00  0.00    +0.000 C 
ATOM      9  C   UNL     1     -65.211 -60.959 -74.794  0.00  0.00    +0.000 A 
ATOM     10  C   UNL     1     -67.544 -59.468 -74.524  0.00  0.00    +0.000 A 
ATOM     11  C   UNL     1     -65.764 -60.324 -75.901  0.00  0.00    +0.000 A 
ATOM     12  C   UNL     1     -67.591 -60.616 -69.614  0.00  0.00    +0.000 A 
ATOM     13  C   UNL     1     -65.260 -62.077 -70.005  0.00  0.00    +0.000 A 
ATOM     14  C   UNL     1     -66.930 -59.577 -75.772  0.00  0.00    +0.000 A 
ATOM     15  C   UNL     1     -65.817 -62.012 -68.732  0.00  0.00    +0.000 A 
ATOM     16  C   UNL     1     -66.985 -61.277 -68.544  0.00  0.00    +0.000 A 
ATOM     17  C   UNL     1     -65.096 -60.449 -77.237  0.00  0.00    +0.000 C 
ENDROOT
BRANCH  10  18
ATOM     18  O   UNL     1     -68.687 -58.716 -74.478  0.00  0.00    +0.000 OA
ATOM     19  H   UNL     1     -69.123 -58.744 -75.362  0.00  0.00    +0.000 HD
ENDBRANCH  10  18
BRANCH  12  20
ATOM     20  O   UNL     1     -68.734 -59.913 -69.363  0.00  0.00    +0.000 OA
ATOM     21  H   UNL     1     -68.911 -59.292 -70.091  0.00  0.00    +0.000 HD
ENDBRANCH  12  20
BRANCH  15  22
ATOM     22  O   UNL     1     -65.147 -62.695 -67.748  0.00  0.00    +0.000 OA
ATOM     23  C   UNL     1     -65.246 -62.139 -66.465  0.00  0.00    +0.000 C 
ENDBRANCH  15  22
TORSDOF 3
ENDMDL
MODEL 7
REMARK VINA RESULT:      -5.1     13.226     15.204
REMARK  Name = 10639_Physcion.pdbqt.pdb
REMARK  3 active torsions:
REMARK  status: ('A' for Active; 'I' for Inactive)
REMARK    1  A    between atoms: C_10  and  O_18
REMARK    2  A    between atoms: C_12  and  O_20
REMARK    3  A    between atoms: C_15  and  O_22
REMARK                            x       y       z     vdW  Elec       q    Type
REMARK                         _______ _______ _______ _____ _____    ______ ____
ROOT
ATOM      1  O   UNL     1     -64.347 -58.017 -10.879  0.00  0.00    +0.000 OA
ATOM      2  O   UNL     1     -64.992 -60.016 -15.775  0.00  0.00    +0.000 OA
ATOM      3  C   UNL     1     -64.405 -58.185 -14.446  0.00  0.00    +0.000 A 
ATOM      4  C   UNL     1     -64.240 -57.671 -13.163  0.00  0.00    +0.000 A 
ATOM      5  C   UNL     1     -64.960 -59.925 -12.175  0.00  0.00    +0.000 A 
ATOM      6  C   UNL     1     -65.118 -60.414 -13.473  0.00  0.00    +0.000 A 
ATOM      7  C   UNL     1     -64.511 -58.521 -11.984  0.00  0.00    +0.000 C 
ATOM      8  C   UNL     1     -64.848 -59.569 -14.646  0.00  0.00    +0.000 C 
ATOM      9  C   UNL     1     -64.154 -57.395 -15.571  0.00  0.00    +0.000 A 
ATOM     10  C   UNL     1     -63.815 -56.342 -13.018  0.00  0.00    +0.000 A 
ATOM     11  C   UNL     1     -63.733 -56.080 -15.411  0.00  0.00    +0.000 A 
ATOM     12  C   UNL     1     -65.235 -60.786 -11.105  0.00  0.00    +0.000 A 
ATOM     13  C   UNL     1     -65.538 -61.728 -13.702  0.00  0.00    +0.000 A 
ATOM     14  C   UNL     1     -63.561 -55.548 -14.137  0.00  0.00    +0.000 A 
ATOM     15  C   UNL     1     -65.809 -62.578 -12.634  0.00  0.00    +0.000 A 
ATOM     16  C   UNL     1     -65.654 -62.098 -11.336  0.00  0.00    +0.000 A 
ATOM     17  C   UNL     1     -63.463 -55.234 -16.619  0.00  0.00    +0.000 C 
ENDROOT
BRANCH  10  18
ATOM     18  O   UNL     1     -63.623 -55.748 -11.800  0.00  0.00    +0.000 OA
ATOM     19  H   UNL     1     -62.839 -56.158 -11.365  0.00  0.00    +0.000 HD
ENDBRANCH  10  18
BRANCH  12  20
ATOM     20  O   UNL     1     -65.103 -60.379  -9.809  0.00  0.00    +0.000 OA
ATOM     21  H   UNL     1     -65.837 -60.731  -9.274  0.00  0.00    +0.000 HD
ENDBRANCH  12  20
BRANCH  15  22
ATOM     22  O   UNL     1     -66.215 -63.847 -12.965  0.00  0.00    +0.000 OA
ATOM     23  C   UNL     1     -65.841 -64.846 -12.056  0.00  0.00    +0.000 C 
ENDBRANCH  15  22
TORSDOF 3
ENDMDL
MODEL 8
REMARK VINA RESULT:      -5.0     10.760     13.084
REMARK  Name = 10639_Physcion.pdbqt.pdb
REMARK  3 active torsions:
REMARK  status: ('A' for Active; 'I' for Inactive)
REMARK    1  A    between atoms: C_10  and  O_18
REMARK    2  A    between atoms: C_12  and  O_20
REMARK    3  A    between atoms: C_15  and  O_22
REMARK                            x       y       z     vdW  Elec       q    Type
REMARK                         _______ _______ _______ _____ _____    ______ ____
ROOT
ATOM      1  O   UNL     1     -62.009 -55.064 -18.784  0.00  0.00    +0.000 OA
ATOM      2  O   UNL     1     -66.224 -54.538 -15.569  0.00  0.00    +0.000 OA
ATOM      3  C   UNL     1     -64.293 -55.734 -16.121  0.00  0.00    +0.000 A 
ATOM      4  C   UNL     1     -63.194 -55.864 -16.967  0.00  0.00    +0.000 A 
ATOM      5  C   UNL     1     -63.967 -53.799 -18.276  0.00  0.00    +0.000 A 
ATOM      6  C   UNL     1     -65.059 -53.693 -17.414  0.00  0.00    +0.000 A 
ATOM      7  C   UNL     1     -62.993 -54.902 -18.072  0.00  0.00    +0.000 C 
ATOM      8  C   UNL     1     -65.260 -54.648 -16.314  0.00  0.00    +0.000 C 
ATOM      9  C   UNL     1     -64.497 -56.633 -15.072  0.00  0.00    +0.000 A 
ATOM     10  C   UNL     1     -62.294 -56.916 -16.746  0.00  0.00    +0.000 A 
ATOM     11  C   UNL     1     -63.596 -57.672 -14.867  0.00  0.00    +0.000 A 
ATOM     12  C   UNL     1     -63.839 -52.853 -19.302  0.00  0.00    +0.000 A 
ATOM     13  C   UNL     1     -66.002 -52.671 -17.566  0.00  0.00    +0.000 A 
ATOM     14  C   UNL     1     -62.493 -57.818 -15.700  0.00  0.00    +0.000 A 
ATOM     15  C   UNL     1     -65.869 -51.735 -18.587  0.00  0.00    +0.000 A 
ATOM     16  C   UNL     1     -64.782 -51.834 -19.453  0.00  0.00    +0.000 A 
ATOM     17  C   UNL     1     -63.818 -58.635 -13.740  0.00  0.00    +0.000 C 
ENDROOT
BRANCH  10  18
ATOM     18  O   UNL     1     -61.186 -57.126 -17.523  0.00  0.00    +0.000 OA
ATOM     19  H   UNL     1     -61.388 -57.831 -18.182  0.00  0.00    +0.000 HD
ENDBRANCH  10  18
BRANCH  12  20
ATOM     20  O   UNL     1     -62.798 -52.893 -20.184  0.00  0.00    +0.000 OA
ATOM     21  H   UNL     1     -62.229 -53.660 -19.993  0.00  0.00    +0.000 HD
ENDBRANCH  12  20
BRANCH  15  22
ATOM     22  O   UNL     1     -66.846 -50.773 -18.652  0.00  0.00    +0.000 OA
ATOM     23  C   UNL     1     -67.989 -51.136 -19.377  0.00  0.00    +0.000 C 
ENDBRANCH  15  22
TORSDOF 3
ENDMDL
MODEL 9
REMARK VINA RESULT:      -4.9      7.608      9.836
REMARK  Name = 10639_Physcion.pdbqt.pdb
REMARK  3 active torsions:
REMARK  status: ('A' for Active; 'I' for Inactive)
REMARK    1  A    between atoms: C_10  and  O_18
REMARK    2  A    between atoms: C_12  and  O_20
REMARK    3  A    between atoms: C_15  and  O_22
REMARK                            x       y       z     vdW  Elec       q    Type
REMARK                         _______ _______ _______ _____ _____    ______ ____
ROOT
ATOM      1  O   UNL     1     -71.464 -55.387 -35.278  0.00  0.00    +0.000 OA
ATOM      2  O   UNL     1     -68.044 -58.100 -32.225  0.00  0.00    +0.000 OA
ATOM      3  C   UNL     1     -69.743 -56.500 -32.354  0.00  0.00    +0.000 A 
ATOM      4  C   UNL     1     -70.633 -55.795 -33.159  0.00  0.00    +0.000 A 
ATOM      5  C   UNL     1     -69.734 -57.029 -35.219  0.00  0.00    +0.000 A 
ATOM      6  C   UNL     1     -68.852 -57.721 -34.388  0.00  0.00    +0.000 A 
ATOM      7  C   UNL     1     -70.660 -56.035 -34.618  0.00  0.00    +0.000 C 
ATOM      8  C   UNL     1     -68.824 -57.484 -32.937  0.00  0.00    +0.000 C 
ATOM      9  C   UNL     1     -69.704 -56.286 -30.974  0.00  0.00    +0.000 A 
ATOM     10  C   UNL     1     -71.493 -54.865 -32.560  0.00  0.00    +0.000 A 
ATOM     11  C   UNL     1     -70.564 -55.360 -30.394  0.00  0.00    +0.000 A 
ATOM     12  C   UNL     1     -69.704 -57.306 -36.592  0.00  0.00    +0.000 A 
ATOM     13  C   UNL     1     -67.961 -58.666 -34.908  0.00  0.00    +0.000 A 
ATOM     14  C   UNL     1     -71.461 -54.646 -31.182  0.00  0.00    +0.000 A 
ATOM     15  C   UNL     1     -67.938 -58.936 -36.273  0.00  0.00    +0.000 A 
ATOM     16  C   UNL     1     -68.815 -58.250 -37.110  0.00  0.00    +0.000 A 
ATOM     17  C   UNL     1     -70.521 -55.132 -28.913  0.00  0.00    +0.000 C 
ENDROOT
BRANCH  10  18
ATOM     18  O   UNL     1     -72.402 -54.125 -33.267  0.00  0.00    +0.000 OA
ATOM     19  H   UNL     1     -73.311 -54.376 -32.979  0.00  0.00    +0.000 HD
ENDBRANCH  10  18
BRANCH  12  20
ATOM     20  O   UNL     1     -70.537 -56.670 -37.467  0.00  0.00    +0.000 OA
ATOM     21  H   UNL     1     -70.434 -55.705 -37.382  0.00  0.00    +0.000 HD
ENDBRANCH  12  20
BRANCH  15  22
ATOM     22  O   UNL     1     -67.029 -59.879 -36.683  0.00  0.00    +0.000 OA
ATOM     23  C   UNL     1     -67.490 -60.757 -37.673  0.00  0.00    +0.000 C 
ENDBRANCH  15  22
TORSDOF 3
ENDMDL
