MODEL 1
REMARK VINA RESULT:      -5.3      0.000      0.000
REMARK  Name = 10940649_MilnamideD.pdbqt.pdb
REMARK  7 active torsions:
REMARK  status: ('A' for Active; 'I' for Inactive)
REMARK    1  A    between atoms: C_3  and  C_8
REMARK    2  A    between atoms: C_22  and  C_25
REMARK    3  A    between atoms: C_22  and  C_38
REMARK    4  A    between atoms: N_24  and  C_27
REMARK    5  A    between atoms: C_27  and  C_28
REMARK    6  A    between atoms: C_32  and  C_35
REMARK    7  A    between atoms: C_35  and  O_36
REMARK                            x       y       z     vdW  Elec       q    Type
REMARK                         _______ _______ _______ _____ _____    ______ ____
ROOT
ATOM      1  O   UNL     1     -69.067 -60.694 -73.682  0.00  0.00    +0.000 OA
ATOM      2  N   UNL     1     -67.547 -61.662 -72.301  0.00  0.00    +0.000 N 
ATOM      3  C   UNL     1     -68.059 -61.379 -73.552  0.00  0.00    +0.000 C 
ATOM      4  H   UNL     1     -66.763 -62.322 -72.231  0.00  0.00    +0.000 HD
ATOM      5  C   UNL     1     -68.065 -61.169 -71.078  0.00  0.00    +0.000 C 
ENDROOT
BRANCH   3   9
ATOM      6  N   UNL     1     -67.514 -63.363 -75.100  0.00  0.00    +0.000 NA
ATOM      7  N   UNL     1     -64.934 -63.236 -78.052  0.00  0.00    +0.000 N 
ATOM      8  C   UNL     1     -66.162 -61.067 -75.274  0.00  0.00    +0.000 C 
ATOM      9  C   UNL     1     -67.318 -61.953 -74.722  0.00  0.00    +0.000 C 
ATOM     10  C   UNL     1     -65.441 -61.673 -76.519  0.00  0.00    +0.000 A 
ATOM     11  C   UNL     1     -65.700 -62.949 -76.976  0.00  0.00    +0.000 A 
ATOM     12  C   UNL     1     -65.035 -60.944 -74.207  0.00  0.00    +0.000 C 
ATOM     13  C   UNL     1     -66.738 -59.711 -75.775  0.00  0.00    +0.000 C 
ATOM     14  C   UNL     1     -64.419 -61.162 -77.398  0.00  0.00    +0.000 A 
ATOM     15  C   UNL     1     -66.670 -63.631 -76.234  0.00  0.00    +0.000 C 
ATOM     16  C   UNL     1     -64.128 -62.162 -78.347  0.00  0.00    +0.000 A 
ATOM     17  C   UNL     1     -68.887 -63.609 -75.512  0.00  0.00    +0.000 C 
ATOM     18  C   UNL     1     -63.714 -59.944 -77.468  0.00  0.00    +0.000 A 
ATOM     19  C   UNL     1     -64.959 -64.476 -78.750  0.00  0.00    +0.000 C 
ATOM     20  C   UNL     1     -63.168 -61.979 -79.354  0.00  0.00    +0.000 A 
ATOM     21  C   UNL     1     -62.758 -59.757 -78.467  0.00  0.00    +0.000 A 
ATOM     22  C   UNL     1     -62.493 -60.757 -79.393  0.00  0.00    +0.000 A 
ENDBRANCH   3   9
BRANCH   5  25
ATOM     23  O   UNL     1     -68.783 -58.960 -71.225  0.00  0.00    +0.000 OA
ATOM     24  N   UNL     1     -70.449 -60.620 -70.998  0.00  0.00    +0.000 N 
ATOM     25  C   UNL     1     -69.123 -60.131 -71.082  0.00  0.00    +0.000 C 
ATOM     26  C   UNL     1     -70.800 -62.029 -70.785  0.00  0.00    +0.000 C 
BRANCH  24  27
ATOM     27  C   UNL     1     -71.542 -59.746 -71.145  0.00  0.00    +0.000 C 
ATOM     28  C   UNL     1     -71.849 -59.144 -72.413  0.00  0.00    +0.000 C 
ATOM     29  C   UNL     1     -72.132 -58.595 -73.558  0.00  0.00    +0.000 C 
ATOM     30  C   UNL     1     -73.423 -59.059 -74.199  0.00  0.00    +0.000 C 
BRANCH  27  31
ATOM     31  C   UNL     1     -72.423 -59.432 -70.030  0.00  0.00    +0.000 C 
ATOM     32  C   UNL     1     -73.849 -59.945 -70.008  0.00  0.00    +0.000 C 
ATOM     33  C   UNL     1     -71.827 -59.156 -68.661  0.00  0.00    +0.000 C 
ENDBRANCH  27  31
BRANCH  29  35
ATOM     34  O   UNL     1     -71.533 -56.699 -74.923  0.00  0.00    +0.000 OA
ATOM     35  C   UNL     1     -71.211 -57.584 -74.144  0.00  0.00    +0.000 C 
BRANCH  35  36
ATOM     36  O   UNL     1     -69.925 -57.703 -73.751  0.00  0.00    +0.000 OA
ATOM     37  H   UNL     1     -69.965 -57.917 -72.796  0.00  0.00    +0.000 HD
ENDBRANCH  35  36
ENDBRANCH  29  35
ENDBRANCH  24  27
ENDBRANCH   5  25
BRANCH   5  38
ATOM     38  C   UNL     1     -67.433 -61.434 -69.721  0.00  0.00    +0.000 C 
ATOM     39  C   UNL     1     -67.345 -62.986 -69.562  0.00  0.00    +0.000 C 
ATOM     40  C   UNL     1     -65.986 -60.864 -69.750  0.00  0.00    +0.000 C 
ATOM     41  C   UNL     1     -68.241 -60.850 -68.537  0.00  0.00    +0.000 C 
ENDBRANCH   5  38
TORSDOF 7
ENDMDL
MODEL 2
REMARK VINA RESULT:      -5.2     16.932     20.429
REMARK  Name = 10940649_MilnamideD.pdbqt.pdb
REMARK  7 active torsions:
REMARK  status: ('A' for Active; 'I' for Inactive)
REMARK    1  A    between atoms: C_3  and  C_8
REMARK    2  A    between atoms: C_22  and  C_25
REMARK    3  A    between atoms: C_22  and  C_38
REMARK    4  A    between atoms: N_24  and  C_27
REMARK    5  A    between atoms: C_27  and  C_28
REMARK    6  A    between atoms: C_32  and  C_35
REMARK    7  A    between atoms: C_35  and  O_36
REMARK                            x       y       z     vdW  Elec       q    Type
REMARK                         _______ _______ _______ _____ _____    ______ ____
ROOT
ATOM      1  O   UNL     1     -50.516 -57.559 -80.308  0.00  0.00    +0.000 OA
ATOM      2  N   UNL     1     -48.535 -58.625 -80.616  0.00  0.00    +0.000 N 
ATOM      3  C   UNL     1     -49.592 -58.207 -79.830  0.00  0.00    +0.000 C 
ATOM      4  H   UNL     1     -47.734 -59.075 -80.159  0.00  0.00    +0.000 HD
ATOM      5  C   UNL     1     -48.428 -58.417 -82.013  0.00  0.00    +0.000 C 
ENDROOT
BRANCH   3   9
ATOM      6  N   UNL     1     -48.643 -57.864 -77.462  0.00  0.00    +0.000 NA
ATOM      7  N   UNL     1     -49.592 -60.052 -74.348  0.00  0.00    +0.000 N 
ATOM      8  C   UNL     1     -50.234 -59.933 -78.023  0.00  0.00    +0.000 C 
ATOM      9  C   UNL     1     -49.537 -58.588 -78.382  0.00  0.00    +0.000 C 
ATOM     10  C   UNL     1     -50.197 -60.278 -76.500  0.00  0.00    +0.000 A 
ATOM     11  C   UNL     1     -49.469 -59.537 -75.592  0.00  0.00    +0.000 A 
ATOM     12  C   UNL     1     -49.477 -61.116 -78.696  0.00  0.00    +0.000 C 
ATOM     13  C   UNL     1     -51.749 -59.845 -78.370  0.00  0.00    +0.000 C 
ATOM     14  C   UNL     1     -50.796 -61.335 -75.726  0.00  0.00    +0.000 A 
ATOM     15  C   UNL     1     -48.790 -58.454 -76.157  0.00  0.00    +0.000 C 
ATOM     16  C   UNL     1     -50.401 -61.163 -74.384  0.00  0.00    +0.000 A 
ATOM     17  C   UNL     1     -49.024 -56.465 -77.352  0.00  0.00    +0.000 C 
ATOM     18  C   UNL     1     -51.632 -62.423 -76.045  0.00  0.00    +0.000 A 
ATOM     19  C   UNL     1     -48.956 -59.521 -73.191  0.00  0.00    +0.000 C 
ATOM     20  C   UNL     1     -50.817 -62.035 -73.366  0.00  0.00    +0.000 A 
ATOM     21  C   UNL     1     -52.049 -63.293 -75.037  0.00  0.00    +0.000 A 
ATOM     22  C   UNL     1     -51.648 -63.098 -73.721  0.00  0.00    +0.000 A 
ENDBRANCH   3   9
BRANCH   5  25
ATOM     23  O   UNL     1     -50.439 -58.661 -83.161  0.00  0.00    +0.000 OA
ATOM     24  N   UNL     1     -49.598 -56.466 -82.916  0.00  0.00    +0.000 N 
ATOM     25  C   UNL     1     -49.577 -57.875 -82.776  0.00  0.00    +0.000 C 
ATOM     26  C   UNL     1     -48.519 -55.574 -82.475  0.00  0.00    +0.000 C 
BRANCH  24  27
ATOM     27  C   UNL     1     -50.710 -55.822 -83.487  0.00  0.00    +0.000 C 
ATOM     28  C   UNL     1     -51.542 -54.946 -82.710  0.00  0.00    +0.000 C 
ATOM     29  C   UNL     1     -52.301 -54.151 -82.012  0.00  0.00    +0.000 C 
ATOM     30  C   UNL     1     -52.243 -52.689 -82.403  0.00  0.00    +0.000 C 
BRANCH  27  31
ATOM     31  C   UNL     1     -51.056 -55.994 -84.890  0.00  0.00    +0.000 C 
ATOM     32  C   UNL     1     -52.422 -55.584 -85.402  0.00  0.00    +0.000 C 
ATOM     33  C   UNL     1     -49.956 -55.983 -85.936  0.00  0.00    +0.000 C 
ENDBRANCH  27  31
BRANCH  29  35
ATOM     34  O   UNL     1     -54.364 -54.612 -80.850  0.00  0.00    +0.000 OA
ATOM     35  C   UNL     1     -53.146 -54.703 -80.919  0.00  0.00    +0.000 C 
BRANCH  35  36
ATOM     36  O   UNL     1     -52.461 -55.344 -79.949  0.00  0.00    +0.000 OA
ATOM     37  H   UNL     1     -51.551 -55.441 -80.298  0.00  0.00    +0.000 HD
ENDBRANCH  35  36
ENDBRANCH  29  35
ENDBRANCH  24  27
ENDBRANCH   5  25
BRANCH   5  38
ATOM     38  C   UNL     1     -47.291 -58.958 -82.866  0.00  0.00    +0.000 C 
ATOM     39  C   UNL     1     -45.976 -58.311 -82.323  0.00  0.00    +0.000 C 
ATOM     40  C   UNL     1     -47.209 -60.494 -82.633  0.00  0.00    +0.000 C 
ATOM     41  C   UNL     1     -47.433 -58.627 -84.371  0.00  0.00    +0.000 C 
ENDBRANCH   5  38
TORSDOF 7
ENDMDL
MODEL 3
REMARK VINA RESULT:      -5.1     53.800     58.879
REMARK  Name = 10940649_MilnamideD.pdbqt.pdb
REMARK  7 active torsions:
REMARK  status: ('A' for Active; 'I' for Inactive)
REMARK    1  A    between atoms: C_3  and  C_8
REMARK    2  A    between atoms: C_22  and  C_25
REMARK    3  A    between atoms: C_22  and  C_38
REMARK    4  A    between atoms: N_24  and  C_27
REMARK    5  A    between atoms: C_27  and  C_28
REMARK    6  A    between atoms: C_32  and  C_35
REMARK    7  A    between atoms: C_35  and  O_36
REMARK                            x       y       z     vdW  Elec       q    Type
REMARK                         _______ _______ _______ _____ _____    ______ ____
ROOT
ATOM      1  O   UNL     1     -62.748 -54.882 -16.753  0.00  0.00    +0.000 OA
ATOM      2  N   UNL     1     -60.676 -55.418 -15.995  0.00  0.00    +0.000 N 
ATOM      3  C   UNL     1     -62.050 -55.349 -15.861  0.00  0.00    +0.000 C 
ATOM      4  H   UNL     1     -60.121 -55.719 -15.186  0.00  0.00    +0.000 HD
ATOM      5  C   UNL     1     -59.950 -55.031 -17.148  0.00  0.00    +0.000 C 
ENDROOT
BRANCH   3   9
ATOM      6  N   UNL     1     -62.353 -55.169 -13.311  0.00  0.00    +0.000 NA
ATOM      7  N   UNL     1     -64.345 -57.743 -11.122  0.00  0.00    +0.000 N 
ATOM      8  C   UNL     1     -63.228 -57.303 -14.656  0.00  0.00    +0.000 C 
ATOM      9  C   UNL     1     -62.622 -55.871 -14.578  0.00  0.00    +0.000 C 
ATOM     10  C   UNL     1     -63.855 -57.798 -13.314  0.00  0.00    +0.000 A 
ATOM     11  C   UNL     1     -63.729 -57.094 -12.134  0.00  0.00    +0.000 A 
ATOM     12  C   UNL     1     -62.102 -58.338 -14.951  0.00  0.00    +0.000 C 
ATOM     13  C   UNL     1     -64.409 -57.315 -15.670  0.00  0.00    +0.000 C 
ATOM     14  C   UNL     1     -64.603 -58.980 -12.966  0.00  0.00    +0.000 A 
ATOM     15  C   UNL     1     -63.009 -55.901 -12.260  0.00  0.00    +0.000 C 
ATOM     16  C   UNL     1     -64.897 -58.913 -11.589  0.00  0.00    +0.000 A 
ATOM     17  C   UNL     1     -62.917 -53.828 -13.324  0.00  0.00    +0.000 C 
ATOM     18  C   UNL     1     -65.051 -60.100 -13.694  0.00  0.00    +0.000 A 
ATOM     19  C   UNL     1     -64.388 -57.280  -9.777  0.00  0.00    +0.000 C 
ATOM     20  C   UNL     1     -65.621 -59.918 -10.931  0.00  0.00    +0.000 A 
ATOM     21  C   UNL     1     -65.771 -61.103 -13.045  0.00  0.00    +0.000 A 
ATOM     22  C   UNL     1     -66.052 -61.010 -11.688  0.00  0.00    +0.000 A 
ENDBRANCH   3   9
BRANCH   5  25
ATOM     23  O   UNL     1     -61.027 -55.602 -19.131  0.00  0.00    +0.000 OA
ATOM     24  N   UNL     1     -60.936 -53.306 -18.579  0.00  0.00    +0.000 N 
ATOM     25  C   UNL     1     -60.668 -54.685 -18.399  0.00  0.00    +0.000 C 
ATOM     26  C   UNL     1     -60.446 -52.245 -17.692  0.00  0.00    +0.000 C 
BRANCH  24  27
ATOM     27  C   UNL     1     -61.740 -52.871 -19.647  0.00  0.00    +0.000 C 
ATOM     28  C   UNL     1     -63.081 -52.402 -19.428  0.00  0.00    +0.000 C 
ATOM     29  C   UNL     1     -64.296 -51.978 -19.237  0.00  0.00    +0.000 C 
ATOM     30  C   UNL     1     -64.517 -50.503 -19.497  0.00  0.00    +0.000 C 
BRANCH  27  31
ATOM     31  C   UNL     1     -61.246 -52.850 -21.016  0.00  0.00    +0.000 C 
ATOM     32  C   UNL     1     -62.137 -52.381 -22.149  0.00  0.00    +0.000 C 
ATOM     33  C   UNL     1     -59.758 -52.689 -21.271  0.00  0.00    +0.000 C 
ENDBRANCH  27  31
BRANCH  29  35
ATOM     34  O   UNL     1     -66.475 -52.616 -18.424  0.00  0.00    +0.000 OA
ATOM     35  C   UNL     1     -65.352 -52.928 -18.794  0.00  0.00    +0.000 C 
BRANCH  35  36
ATOM     36  O   UNL     1     -64.985 -54.227 -18.819  0.00  0.00    +0.000 OA
ATOM     37  H   UNL     1     -65.599 -54.680 -18.205  0.00  0.00    +0.000 HD
ENDBRANCH  35  36
ENDBRANCH  29  35
ENDBRANCH  24  27
ENDBRANCH   5  25
BRANCH   5  38
ATOM     38  C   UNL     1     -58.446 -55.191 -17.296  0.00  0.00    +0.000 C 
ATOM     39  C   UNL     1     -57.791 -54.364 -16.143  0.00  0.00    +0.000 C 
ATOM     40  C   UNL     1     -58.102 -56.692 -17.075  0.00  0.00    +0.000 C 
ATOM     41  C   UNL     1     -57.900 -54.686 -18.654  0.00  0.00    +0.000 C 
ENDBRANCH   5  38
TORSDOF 7
ENDMDL
MODEL 4
REMARK VINA RESULT:      -5.1     45.368     49.904
REMARK  Name = 10940649_MilnamideD.pdbqt.pdb
REMARK  7 active torsions:
REMARK  status: ('A' for Active; 'I' for Inactive)
REMARK    1  A    between atoms: C_3  and  C_8
REMARK    2  A    between atoms: C_22  and  C_25
REMARK    3  A    between atoms: C_22  and  C_38
REMARK    4  A    between atoms: N_24  and  C_27
REMARK    5  A    between atoms: C_27  and  C_28
REMARK    6  A    between atoms: C_32  and  C_35
REMARK    7  A    between atoms: C_35  and  O_36
REMARK                            x       y       z     vdW  Elec       q    Type
REMARK                         _______ _______ _______ _____ _____    ______ ____
ROOT
ATOM      1  O   UNL     1     -62.080 -49.490 -25.155  0.00  0.00    +0.000 OA
ATOM      2  N   UNL     1     -61.552 -47.461 -26.026  0.00  0.00    +0.000 N 
ATOM      3  C   UNL     1     -62.447 -48.470 -25.726  0.00  0.00    +0.000 C 
ATOM      4  H   UNL     1     -61.878 -46.671 -26.594  0.00  0.00    +0.000 HD
ATOM      5  C   UNL     1     -60.181 -47.458 -25.674  0.00  0.00    +0.000 C 
ENDROOT
BRANCH   3   9
ATOM      6  N   UNL     1     -64.868 -47.822 -25.139  0.00  0.00    +0.000 NA
ATOM      7  N   UNL     1     -67.847 -47.807 -27.692  0.00  0.00    +0.000 N 
ATOM      8  C   UNL     1     -64.241 -48.760 -27.559  0.00  0.00    +0.000 C 
ATOM      9  C   UNL     1     -63.871 -48.243 -26.137  0.00  0.00    +0.000 C 
ATOM     10  C   UNL     1     -65.718 -48.468 -27.973  0.00  0.00    +0.000 A 
ATOM     11  C   UNL     1     -66.644 -47.950 -27.091  0.00  0.00    +0.000 A 
ATOM     12  C   UNL     1     -64.138 -50.313 -27.600  0.00  0.00    +0.000 C 
ATOM     13  C   UNL     1     -63.380 -48.020 -28.624  0.00  0.00    +0.000 C 
ATOM     14  C   UNL     1     -66.441 -48.662 -29.204  0.00  0.00    +0.000 A 
ATOM     15  C   UNL     1     -66.134 -47.700 -25.814  0.00  0.00    +0.000 C 
ATOM     16  C   UNL     1     -67.768 -48.235 -28.996  0.00  0.00    +0.000 A 
ATOM     17  C   UNL     1     -64.541 -46.515 -24.590  0.00  0.00    +0.000 C 
ATOM     18  C   UNL     1     -66.089 -49.165 -30.473  0.00  0.00    +0.000 A 
ATOM     19  C   UNL     1     -69.013 -47.306 -27.048  0.00  0.00    +0.000 C 
ATOM     20  C   UNL     1     -68.738 -48.293 -30.008  0.00  0.00    +0.000 A 
ATOM     21  C   UNL     1     -67.049 -49.225 -31.483  0.00  0.00    +0.000 A 
ATOM     22  C   UNL     1     -68.349 -48.794 -31.252  0.00  0.00    +0.000 A 
ENDBRANCH   3   9
BRANCH   5  25
ATOM     23  O   UNL     1     -59.751 -48.322 -23.555  0.00  0.00    +0.000 OA
ATOM     24  N   UNL     1     -59.119 -49.648 -25.406  0.00  0.00    +0.000 N 
ATOM     25  C   UNL     1     -59.643 -48.499 -24.765  0.00  0.00    +0.000 C 
ATOM     26  C   UNL     1     -58.973 -49.791 -26.859  0.00  0.00    +0.000 C 
BRANCH  24  27
ATOM     27  C   UNL     1     -58.720 -50.765 -24.651  0.00  0.00    +0.000 C 
ATOM     28  C   UNL     1     -59.441 -52.006 -24.720  0.00  0.00    +0.000 C 
ATOM     29  C   UNL     1     -60.089 -53.133 -24.776  0.00  0.00    +0.000 C 
ATOM     30  C   UNL     1     -59.341 -54.282 -25.417  0.00  0.00    +0.000 C 
BRANCH  27  31
ATOM     31  C   UNL     1     -57.548 -50.725 -23.788  0.00  0.00    +0.000 C 
ATOM     32  C   UNL     1     -57.689 -50.912 -22.291  0.00  0.00    +0.000 C 
ATOM     33  C   UNL     1     -56.192 -51.110 -24.351  0.00  0.00    +0.000 C 
ENDBRANCH  27  31
BRANCH  29  35
ATOM     34  O   UNL     1     -61.815 -53.926 -23.289  0.00  0.00    +0.000 OA
ATOM     35  C   UNL     1     -61.470 -53.222 -24.227  0.00  0.00    +0.000 C 
BRANCH  35  36
ATOM     36  O   UNL     1     -62.375 -52.443 -24.856  0.00  0.00    +0.000 OA
ATOM     37  H   UNL     1     -63.213 -52.948 -24.830  0.00  0.00    +0.000 HD
ENDBRANCH  35  36
ENDBRANCH  29  35
ENDBRANCH  24  27
ENDBRANCH   5  25
BRANCH   5  38
ATOM     38  C   UNL     1     -59.237 -46.298 -25.948  0.00  0.00    +0.000 C 
ATOM     39  C   UNL     1     -59.266 -46.051 -27.491  0.00  0.00    +0.000 C 
ATOM     40  C   UNL     1     -59.813 -45.038 -25.242  0.00  0.00    +0.000 C 
ATOM     41  C   UNL     1     -57.778 -46.568 -25.507  0.00  0.00    +0.000 C 
ENDBRANCH   5  38
TORSDOF 7
ENDMDL
MODEL 5
REMARK VINA RESULT:      -5.0     15.568     20.762
REMARK  Name = 10940649_MilnamideD.pdbqt.pdb
REMARK  7 active torsions:
REMARK  status: ('A' for Active; 'I' for Inactive)
REMARK    1  A    between atoms: C_3  and  C_8
REMARK    2  A    between atoms: C_22  and  C_25
REMARK    3  A    between atoms: C_22  and  C_38
REMARK    4  A    between atoms: N_24  and  C_27
REMARK    5  A    between atoms: C_27  and  C_28
REMARK    6  A    between atoms: C_32  and  C_35
REMARK    7  A    between atoms: C_35  and  O_36
REMARK                            x       y       z     vdW  Elec       q    Type
REMARK                         _______ _______ _______ _____ _____    ______ ____
ROOT
ATOM      1  O   UNL     1     -57.974 -58.464 -57.810  0.00  0.00    +0.000 OA
ATOM      2  N   UNL     1     -59.318 -56.637 -57.908  0.00  0.00    +0.000 N 
ATOM      3  C   UNL     1     -58.597 -57.592 -57.216  0.00  0.00    +0.000 C 
ATOM      4  H   UNL     1     -59.908 -55.988 -57.375  0.00  0.00    +0.000 HD
ATOM      5  C   UNL     1     -59.373 -56.522 -59.318  0.00  0.00    +0.000 C 
ENDROOT
BRANCH   3   9
ATOM      6  N   UNL     1     -57.370 -57.551 -54.954  0.00  0.00    +0.000 NA
ATOM      7  N   UNL     1     -59.146 -57.295 -51.466  0.00  0.00    +0.000 N 
ATOM      8  C   UNL     1     -60.036 -57.634 -55.074  0.00  0.00    +0.000 C 
ATOM      9  C   UNL     1     -58.626 -57.495 -55.721  0.00  0.00    +0.000 C 
ATOM     10  C   UNL     1     -60.036 -57.484 -53.520  0.00  0.00    +0.000 A 
ATOM     11  C   UNL     1     -58.871 -57.403 -52.785  0.00  0.00    +0.000 A 
ATOM     12  C   UNL     1     -60.588 -59.070 -55.315  0.00  0.00    +0.000 C 
ATOM     13  C   UNL     1     -60.957 -56.486 -55.581  0.00  0.00    +0.000 C 
ATOM     14  C   UNL     1     -61.097 -57.432 -52.547  0.00  0.00    +0.000 A 
ATOM     15  C   UNL     1     -57.707 -57.452 -53.558  0.00  0.00    +0.000 C 
ATOM     16  C   UNL     1     -60.507 -57.310 -51.273  0.00  0.00    +0.000 A 
ATOM     17  C   UNL     1     -56.509 -56.423 -55.274  0.00  0.00    +0.000 C 
ATOM     18  C   UNL     1     -62.503 -57.481 -52.633  0.00  0.00    +0.000 A 
ATOM     19  C   UNL     1     -58.160 -57.201 -50.444  0.00  0.00    +0.000 C 
ATOM     20  C   UNL     1     -61.273 -57.233 -50.100  0.00  0.00    +0.000 A 
ATOM     21  C   UNL     1     -63.270 -57.406 -51.470  0.00  0.00    +0.000 A 
ATOM     22  C   UNL     1     -62.662 -57.282 -50.227  0.00  0.00    +0.000 A 
ENDBRANCH   3   9
BRANCH   5  25
ATOM     23  O   UNL     1     -57.337 -56.930 -60.372  0.00  0.00    +0.000 OA
ATOM     24  N   UNL     1     -59.016 -58.578 -60.599  0.00  0.00    +0.000 N 
ATOM     25  C   UNL     1     -58.476 -57.342 -60.168  0.00  0.00    +0.000 C 
ATOM     26  C   UNL     1     -60.400 -59.004 -60.363  0.00  0.00    +0.000 C 
BRANCH  24  27
ATOM     27  C   UNL     1     -58.211 -59.507 -61.281  0.00  0.00    +0.000 C 
ATOM     28  C   UNL     1     -58.154 -59.531 -62.717  0.00  0.00    +0.000 C 
ATOM     29  C   UNL     1     -58.098 -59.559 -64.017  0.00  0.00    +0.000 C 
ATOM     30  C   UNL     1     -56.771 -59.150 -64.619  0.00  0.00    +0.000 C 
BRANCH  27  31
ATOM     31  C   UNL     1     -57.383 -60.469 -60.568  0.00  0.00    +0.000 C 
ATOM     32  C   UNL     1     -55.940 -60.143 -60.235  0.00  0.00    +0.000 C 
ATOM     33  C   UNL     1     -58.037 -61.475 -59.640  0.00  0.00    +0.000 C 
ENDBRANCH  27  31
BRANCH  29  35
ATOM     34  O   UNL     1     -59.287 -60.300 -65.980  0.00  0.00    +0.000 OA
ATOM     35  C   UNL     1     -59.293 -59.976 -64.801  0.00  0.00    +0.000 C 
BRANCH  35  36
ATOM     36  O   UNL     1     -60.449 -59.975 -64.106  0.00  0.00    +0.000 OA
ATOM     37  H   UNL     1     -60.497 -60.857 -63.683  0.00  0.00    +0.000 HD
ENDBRANCH  35  36
ENDBRANCH  29  35
ENDBRANCH  24  27
ENDBRANCH   5  25
BRANCH   5  38
ATOM     38  C   UNL     1     -60.112 -55.413 -60.051  0.00  0.00    +0.000 C 
ATOM     39  C   UNL     1     -61.571 -55.402 -59.493  0.00  0.00    +0.000 C 
ATOM     40  C   UNL     1     -59.437 -54.063 -59.676  0.00  0.00    +0.000 C 
ATOM     41  C   UNL     1     -60.159 -55.608 -61.586  0.00  0.00    +0.000 C 
ENDBRANCH   5  38
TORSDOF 7
ENDMDL
MODEL 6
REMARK VINA RESULT:      -5.0      2.796      5.666
REMARK  Name = 10940649_MilnamideD.pdbqt.pdb
REMARK  7 active torsions:
REMARK  status: ('A' for Active; 'I' for Inactive)
REMARK    1  A    between atoms: C_3  and  C_8
REMARK    2  A    between atoms: C_22  and  C_25
REMARK    3  A    between atoms: C_22  and  C_38
REMARK    4  A    between atoms: N_24  and  C_27
REMARK    5  A    between atoms: C_27  and  C_28
REMARK    6  A    between atoms: C_32  and  C_35
REMARK    7  A    between atoms: C_35  and  O_36
REMARK                            x       y       z     vdW  Elec       q    Type
REMARK                         _______ _______ _______ _____ _____    ______ ____
ROOT
ATOM      1  O   UNL     1     -65.578 -62.225 -75.069  0.00  0.00    +0.000 OA
ATOM      2  N   UNL     1     -67.296 -61.066 -75.995  0.00  0.00    +0.000 N 
ATOM      3  C   UNL     1     -66.058 -61.678 -76.054  0.00  0.00    +0.000 C 
ATOM      4  H   UNL     1     -67.616 -60.532 -76.811  0.00  0.00    +0.000 HD
ATOM      5  C   UNL     1     -68.144 -61.051 -74.861  0.00  0.00    +0.000 C 
ENDROOT
BRANCH   3   9
ATOM      6  N   UNL     1     -65.196 -62.856 -78.174  0.00  0.00    +0.000 NA
ATOM      7  N   UNL     1     -63.180 -61.088 -81.036  0.00  0.00    +0.000 N 
ATOM      8  C   UNL     1     -64.576 -60.310 -77.664  0.00  0.00    +0.000 C 
ATOM      9  C   UNL     1     -65.352 -61.629 -77.375  0.00  0.00    +0.000 C 
ATOM     10  C   UNL     1     -63.889 -60.274 -79.066  0.00  0.00    +0.000 A 
ATOM     11  C   UNL     1     -63.841 -61.377 -79.894  0.00  0.00    +0.000 A 
ATOM     12  C   UNL     1     -63.393 -60.163 -76.661  0.00  0.00    +0.000 C 
ATOM     13  C   UNL     1     -65.569 -59.113 -77.681  0.00  0.00    +0.000 C 
ATOM     14  C   UNL     1     -63.180 -59.241 -79.777  0.00  0.00    +0.000 A 
ATOM     15  C   UNL     1     -64.473 -62.509 -79.369  0.00  0.00    +0.000 C 
ATOM     16  C   UNL     1     -62.753 -59.781 -81.007  0.00  0.00    +0.000 A 
ATOM     17  C   UNL     1     -66.489 -63.381 -78.585  0.00  0.00    +0.000 C 
ATOM     18  C   UNL     1     -62.860 -57.900 -79.485  0.00  0.00    +0.000 A 
ATOM     19  C   UNL     1     -62.952 -62.015 -82.091  0.00  0.00    +0.000 C 
ATOM     20  C   UNL     1     -62.028 -59.026 -81.942  0.00  0.00    +0.000 A 
ATOM     21  C   UNL     1     -62.139 -57.146 -80.411  0.00  0.00    +0.000 A 
ATOM     22  C   UNL     1     -61.734 -57.701 -81.618  0.00  0.00    +0.000 A 
ENDBRANCH   3   9
BRANCH   5  25
ATOM     23  O   UNL     1     -68.164 -63.059 -73.683  0.00  0.00    +0.000 OA
ATOM     24  N   UNL     1     -67.056 -61.231 -72.675  0.00  0.00    +0.000 N 
ATOM     25  C   UNL     1     -67.818 -61.881 -73.676  0.00  0.00    +0.000 C 
ATOM     26  C   UNL     1     -66.705 -59.807 -72.696  0.00  0.00    +0.000 C 
BRANCH  24  27
ATOM     27  C   UNL     1     -66.558 -61.955 -71.577  0.00  0.00    +0.000 C 
ATOM     28  C   UNL     1     -65.505 -62.919 -71.737  0.00  0.00    +0.000 C 
ATOM     29  C   UNL     1     -64.552 -63.795 -71.874  0.00  0.00    +0.000 C 
ATOM     30  C   UNL     1     -63.233 -63.427 -71.230  0.00  0.00    +0.000 C 
BRANCH  27  31
ATOM     31  C   UNL     1     -67.065 -61.743 -70.229  0.00  0.00    +0.000 C 
ATOM     32  C   UNL     1     -68.307 -62.471 -69.752  0.00  0.00    +0.000 C 
ATOM     33  C   UNL     1     -66.107 -61.333 -69.126  0.00  0.00    +0.000 C 
ENDBRANCH  27  31
BRANCH  29  35
ATOM     34  O   UNL     1     -64.289 -66.138 -72.386  0.00  0.00    +0.000 OA
ATOM     35  C   UNL     1     -64.806 -65.055 -72.624  0.00  0.00    +0.000 C 
BRANCH  35  36
ATOM     36  O   UNL     1     -65.686 -64.936 -73.641  0.00  0.00    +0.000 OA
ATOM     37  H   UNL     1     -65.608 -65.770 -74.148  0.00  0.00    +0.000 HD
ENDBRANCH  35  36
ENDBRANCH  29  35
ENDBRANCH  24  27
ENDBRANCH   5  25
BRANCH   5  38
ATOM     38  C   UNL     1     -69.535 -60.438 -74.850  0.00  0.00    +0.000 C 
ATOM     39  C   UNL     1     -69.377 -58.960 -75.331  0.00  0.00    +0.000 C 
ATOM     40  C   UNL     1     -70.400 -61.200 -75.894  0.00  0.00    +0.000 C 
ATOM     41  C   UNL     1     -70.205 -60.447 -73.455  0.00  0.00    +0.000 C 
ENDBRANCH   5  38
TORSDOF 7
ENDMDL
MODEL 7
REMARK VINA RESULT:      -5.0     45.444     50.255
REMARK  Name = 10940649_MilnamideD.pdbqt.pdb
REMARK  7 active torsions:
REMARK  status: ('A' for Active; 'I' for Inactive)
REMARK    1  A    between atoms: C_3  and  C_8
REMARK    2  A    between atoms: C_22  and  C_25
REMARK    3  A    between atoms: C_22  and  C_38
REMARK    4  A    between atoms: N_24  and  C_27
REMARK    5  A    between atoms: C_27  and  C_28
REMARK    6  A    between atoms: C_32  and  C_35
REMARK    7  A    between atoms: C_35  and  O_36
REMARK                            x       y       z     vdW  Elec       q    Type
REMARK                         _______ _______ _______ _____ _____    ______ ____
ROOT
ATOM      1  O   UNL     1     -61.501 -49.300 -25.442  0.00  0.00    +0.000 OA
ATOM      2  N   UNL     1     -62.666 -47.712 -24.313  0.00  0.00    +0.000 N 
ATOM      3  C   UNL     1     -62.235 -48.320 -25.477  0.00  0.00    +0.000 C 
ATOM      4  H   UNL     1     -63.195 -46.835 -24.387  0.00  0.00    +0.000 HD
ATOM      5  C   UNL     1     -62.374 -48.162 -23.003  0.00  0.00    +0.000 C 
ENDROOT
BRANCH   3   9
ATOM      6  N   UNL     1     -62.278 -46.362 -27.147  0.00  0.00    +0.000 NA
ATOM      7  N   UNL     1     -64.389 -46.306 -30.453  0.00  0.00    +0.000 N 
ATOM      8  C   UNL     1     -63.883 -48.474 -27.457  0.00  0.00    +0.000 C 
ATOM      9  C   UNL     1     -62.714 -47.715 -26.762  0.00  0.00    +0.000 C 
ATOM     10  C   UNL     1     -64.326 -47.843 -28.815  0.00  0.00    +0.000 A 
ATOM     11  C   UNL     1     -63.836 -46.634 -29.265  0.00  0.00    +0.000 A 
ATOM     12  C   UNL     1     -65.161 -48.400 -26.571  0.00  0.00    +0.000 C 
ATOM     13  C   UNL     1     -63.425 -49.915 -27.824  0.00  0.00    +0.000 C 
ATOM     14  C   UNL     1     -65.266 -48.264 -29.824  0.00  0.00    +0.000 A 
ATOM     15  C   UNL     1     -62.903 -46.045 -28.405  0.00  0.00    +0.000 C 
ATOM     16  C   UNL     1     -65.279 -47.283 -30.835  0.00  0.00    +0.000 A 
ATOM     17  C   UNL     1     -60.839 -46.313 -27.352  0.00  0.00    +0.000 C 
ATOM     18  C   UNL     1     -66.108 -49.385 -29.965  0.00  0.00    +0.000 A 
ATOM     19  C   UNL     1     -64.098 -45.116 -31.175  0.00  0.00    +0.000 C 
ATOM     20  C   UNL     1     -66.096 -47.393 -31.971  0.00  0.00    +0.000 A 
ATOM     21  C   UNL     1     -66.923 -49.499 -31.091  0.00  0.00    +0.000 A 
ATOM     22  C   UNL     1     -66.913 -48.519 -32.076  0.00  0.00    +0.000 A 
ENDBRANCH   3   9
BRANCH   5  25
ATOM     23  O   UNL     1     -62.418 -50.473 -22.728  0.00  0.00    +0.000 OA
ATOM     24  N   UNL     1     -60.296 -49.436 -22.774  0.00  0.00    +0.000 N 
ATOM     25  C   UNL     1     -61.711 -49.472 -22.795  0.00  0.00    +0.000 C 
ATOM     26  C   UNL     1     -59.499 -48.204 -22.815  0.00  0.00    +0.000 C 
BRANCH  24  27
ATOM     27  C   UNL     1     -59.553 -50.629 -22.737  0.00  0.00    +0.000 C 
ATOM     28  C   UNL     1     -59.601 -51.571 -23.821  0.00  0.00    +0.000 C 
ATOM     29  C   UNL     1     -59.641 -52.429 -24.798  0.00  0.00    +0.000 C 
ATOM     30  C   UNL     1     -58.357 -52.575 -25.587  0.00  0.00    +0.000 C 
BRANCH  27  31
ATOM     31  C   UNL     1     -58.684 -50.953 -21.614  0.00  0.00    +0.000 C 
ATOM     32  C   UNL     1     -59.208 -50.890 -20.193  0.00  0.00    +0.000 C 
ATOM     33  C   UNL     1     -57.521 -51.906 -21.821  0.00  0.00    +0.000 C 
ENDBRANCH  27  31
BRANCH  29  35
ATOM     34  O   UNL     1     -60.958 -54.378 -25.331  0.00  0.00    +0.000 OA
ATOM     35  C   UNL     1     -60.893 -53.186 -25.070  0.00  0.00    +0.000 C 
BRANCH  35  36
ATOM     36  O   UNL     1     -62.020 -52.444 -25.014  0.00  0.00    +0.000 OA
ATOM     37  H   UNL     1     -61.839 -51.749 -24.348  0.00  0.00    +0.000 HD
ENDBRANCH  35  36
ENDBRANCH  29  35
ENDBRANCH  24  27
ENDBRANCH   5  25
BRANCH   5  38
ATOM     38  C   UNL     1     -62.927 -47.518 -21.741  0.00  0.00    +0.000 C 
ATOM     39  C   UNL     1     -62.648 -45.985 -21.861  0.00  0.00    +0.000 C 
ATOM     40  C   UNL     1     -64.468 -47.733 -21.733  0.00  0.00    +0.000 C 
ATOM     41  C   UNL     1     -62.281 -48.050 -20.439  0.00  0.00    +0.000 C 
ENDBRANCH   5  38
TORSDOF 7
ENDMDL
MODEL 8
REMARK VINA RESULT:      -4.9     31.234     36.809
REMARK  Name = 10940649_MilnamideD.pdbqt.pdb
REMARK  7 active torsions:
REMARK  status: ('A' for Active; 'I' for Inactive)
REMARK    1  A    between atoms: C_3  and  C_8
REMARK    2  A    between atoms: C_22  and  C_25
REMARK    3  A    between atoms: C_22  and  C_38
REMARK    4  A    between atoms: N_24  and  C_27
REMARK    5  A    between atoms: C_27  and  C_28
REMARK    6  A    between atoms: C_32  and  C_35
REMARK    7  A    between atoms: C_35  and  O_36
REMARK                            x       y       z     vdW  Elec       q    Type
REMARK                         _______ _______ _______ _____ _____    ______ ____
ROOT
ATOM      1  O   UNL     1     -67.649 -58.459 -39.097  0.00  0.00    +0.000 OA
ATOM      2  N   UNL     1     -69.261 -56.862 -39.171  0.00  0.00    +0.000 N 
ATOM      3  C   UNL     1     -68.648 -57.958 -38.595  0.00  0.00    +0.000 C 
ATOM      4  H   UNL     1     -70.152 -56.537 -38.778  0.00  0.00    +0.000 HD
ATOM      5  C   UNL     1     -68.797 -56.182 -40.323  0.00  0.00    +0.000 C 
ENDROOT
BRANCH   3   9
ATOM      6  N   UNL     1     -70.046 -59.739 -37.371  0.00  0.00    +0.000 NA
ATOM      7  N   UNL     1     -70.983 -59.601 -33.564  0.00  0.00    +0.000 N 
ATOM      8  C   UNL     1     -69.288 -57.496 -36.138  0.00  0.00    +0.000 C 
ATOM      9  C   UNL     1     -69.272 -58.487 -37.339  0.00  0.00    +0.000 C 
ATOM     10  C   UNL     1     -69.904 -58.093 -34.833  0.00  0.00    +0.000 A 
ATOM     11  C   UNL     1     -70.523 -59.326 -34.805  0.00  0.00    +0.000 A 
ATOM     12  C   UNL     1     -70.207 -56.282 -36.467  0.00  0.00    +0.000 C 
ATOM     13  C   UNL     1     -67.828 -57.123 -35.749  0.00  0.00    +0.000 C 
ATOM     14  C   UNL     1     -70.018 -57.586 -33.489  0.00  0.00    +0.000 A 
ATOM     15  C   UNL     1     -70.531 -59.985 -36.038  0.00  0.00    +0.000 C 
ATOM     16  C   UNL     1     -70.694 -58.555 -32.720  0.00  0.00    +0.000 A 
ATOM     17  C   UNL     1     -69.206 -60.867 -37.742  0.00  0.00    +0.000 C 
ATOM     18  C   UNL     1     -69.612 -56.393 -32.860  0.00  0.00    +0.000 A 
ATOM     19  C   UNL     1     -71.676 -60.792 -33.208  0.00  0.00    +0.000 C 
ATOM     20  C   UNL     1     -70.968 -58.367 -31.356  0.00  0.00    +0.000 A 
ATOM     21  C   UNL     1     -69.883 -56.200 -31.505  0.00  0.00    +0.000 A 
ATOM     22  C   UNL     1     -70.547 -57.173 -30.768  0.00  0.00    +0.000 A 
ENDBRANCH   3   9
BRANCH   5  25
ATOM     23  O   UNL     1     -66.480 -55.968 -40.409  0.00  0.00    +0.000 OA
ATOM     24  N   UNL     1     -67.477 -57.490 -41.917  0.00  0.00    +0.000 N 
ATOM     25  C   UNL     1     -67.469 -56.508 -40.897  0.00  0.00    +0.000 C 
ATOM     26  C   UNL     1     -68.694 -58.073 -42.495  0.00  0.00    +0.000 C 
BRANCH  24  27
ATOM     27  C   UNL     1     -66.269 -57.993 -42.432  0.00  0.00    +0.000 C 
ATOM     28  C   UNL     1     -65.888 -59.363 -42.231  0.00  0.00    +0.000 C 
ATOM     29  C   UNL     1     -65.535 -60.603 -42.053  0.00  0.00    +0.000 C 
ATOM     30  C   UNL     1     -65.513 -61.459 -43.302  0.00  0.00    +0.000 C 
BRANCH  27  31
ATOM     31  C   UNL     1     -65.365 -57.159 -43.210  0.00  0.00    +0.000 C 
ATOM     32  C   UNL     1     -63.956 -56.887 -42.721  0.00  0.00    +0.000 C 
ATOM     33  C   UNL     1     -65.543 -57.066 -44.715  0.00  0.00    +0.000 C 
ENDBRANCH  27  31
BRANCH  29  35
ATOM     34  O   UNL     1     -64.238 -61.807 -40.414  0.00  0.00    +0.000 OA
ATOM     35  C   UNL     1     -65.186 -61.085 -40.689  0.00  0.00    +0.000 C 
BRANCH  35  36
ATOM     36  O   UNL     1     -66.019 -60.664 -39.714  0.00  0.00    +0.000 OA
ATOM     37  H   UNL     1     -66.001 -61.370 -39.036  0.00  0.00    +0.000 HD
ENDBRANCH  35  36
ENDBRANCH  29  35
ENDBRANCH  24  27
ENDBRANCH   5  25
BRANCH   5  38
ATOM     38  C   UNL     1     -69.449 -54.930 -40.889  0.00  0.00    +0.000 C 
ATOM     39  C   UNL     1     -70.924 -55.309 -41.234  0.00  0.00    +0.000 C 
ATOM     40  C   UNL     1     -69.472 -53.855 -39.765  0.00  0.00    +0.000 C 
ATOM     41  C   UNL     1     -68.754 -54.392 -42.164  0.00  0.00    +0.000 C 
ENDBRANCH   5  38
TORSDOF 7
ENDMDL
MODEL 9
REMARK VINA RESULT:      -4.9     49.105     54.159
REMARK  Name = 10940649_MilnamideD.pdbqt.pdb
REMARK  7 active torsions:
REMARK  status: ('A' for Active; 'I' for Inactive)
REMARK    1  A    between atoms: C_3  and  C_8
REMARK    2  A    between atoms: C_22  and  C_25
REMARK    3  A    between atoms: C_22  and  C_38
REMARK    4  A    between atoms: N_24  and  C_27
REMARK    5  A    between atoms: C_27  and  C_28
REMARK    6  A    between atoms: C_32  and  C_35
REMARK    7  A    between atoms: C_35  and  O_36
REMARK                            x       y       z     vdW  Elec       q    Type
REMARK                         _______ _______ _______ _____ _____    ______ ____
ROOT
ATOM      1  O   UNL     1     -62.095 -50.780 -22.223  0.00  0.00    +0.000 OA
ATOM      2  N   UNL     1     -60.446 -52.313 -22.520  0.00  0.00    +0.000 N 
ATOM      3  C   UNL     1     -61.355 -51.628 -21.736  0.00  0.00    +0.000 C 
ATOM      4  H   UNL     1     -59.777 -52.939 -22.057  0.00  0.00    +0.000 HD
ATOM      5  C   UNL     1     -60.308 -52.168 -23.921  0.00  0.00    +0.000 C 
ENDROOT
BRANCH   3   9
ATOM      6  N   UNL     1     -60.143 -51.905 -19.483  0.00  0.00    +0.000 NA
ATOM      7  N   UNL     1     -61.844 -53.169 -16.183  0.00  0.00    +0.000 N 
ATOM      8  C   UNL     1     -62.678 -52.683 -19.788  0.00  0.00    +0.000 C 
ATOM      9  C   UNL     1     -61.379 -51.979 -20.280  0.00  0.00    +0.000 C 
ATOM     10  C   UNL     1     -62.688 -52.995 -18.258  0.00  0.00    +0.000 A 
ATOM     11  C   UNL     1     -61.578 -52.811 -17.458  0.00  0.00    +0.000 A 
ATOM     12  C   UNL     1     -62.807 -54.083 -20.459  0.00  0.00    +0.000 C 
ATOM     13  C   UNL     1     -63.897 -51.740 -20.005  0.00  0.00    +0.000 C 
ATOM     14  C   UNL     1     -63.700 -53.522 -17.378  0.00  0.00    +0.000 A 
ATOM     15  C   UNL     1     -60.465 -52.311 -18.140  0.00  0.00    +0.000 C 
ATOM     16  C   UNL     1     -63.142 -53.615 -16.087  0.00  0.00    +0.000 A 
ATOM     17  C   UNL     1     -59.642 -50.540 -19.416  0.00  0.00    +0.000 C 
ATOM     18  C   UNL     1     -65.036 -53.931 -17.562  0.00  0.00    +0.000 A 
ATOM     19  C   UNL     1     -60.904 -53.106 -15.116  0.00  0.00    +0.000 C 
ATOM     20  C   UNL     1     -63.873 -54.095 -14.990  0.00  0.00    +0.000 A 
ATOM     21  C   UNL     1     -65.768 -54.410 -16.475  0.00  0.00    +0.000 A 
ATOM     22  C   UNL     1     -65.194 -54.488 -15.213  0.00  0.00    +0.000 A 
ENDBRANCH   3   9
BRANCH   5  25
ATOM     23  O   UNL     1     -62.320 -51.933 -25.068  0.00  0.00    +0.000 OA
ATOM     24  N   UNL     1     -60.978 -50.001 -24.841  0.00  0.00    +0.000 N 
ATOM     25  C   UNL     1     -61.295 -51.372 -24.690  0.00  0.00    +0.000 C 
ATOM     26  C   UNL     1     -59.717 -49.390 -24.406  0.00  0.00    +0.000 C 
BRANCH  24  27
ATOM     27  C   UNL     1     -61.906 -49.114 -25.416  0.00  0.00    +0.000 C 
ATOM     28  C   UNL     1     -62.548 -48.096 -24.632  0.00  0.00    +0.000 C 
ATOM     29  C   UNL     1     -63.134 -47.171 -23.929  0.00  0.00    +0.000 C 
ATOM     30  C   UNL     1     -62.745 -45.748 -24.273  0.00  0.00    +0.000 C 
BRANCH  27  31
ATOM     31  C   UNL     1     -62.239 -49.171 -26.832  0.00  0.00    +0.000 C 
ATOM     32  C   UNL     1     -63.671 -49.397 -27.277  0.00  0.00    +0.000 C 
ATOM     33  C   UNL     1     -61.373 -48.430 -27.834  0.00  0.00    +0.000 C 
ENDBRANCH  27  31
BRANCH  29  35
ATOM     34  O   UNL     1     -65.146 -46.952 -22.618  0.00  0.00    +0.000 OA
ATOM     35  C   UNL     1     -64.111 -47.551 -22.873  0.00  0.00    +0.000 C 
BRANCH  35  36
ATOM     36  O   UNL     1     -63.776 -48.651 -22.167  0.00  0.00    +0.000 OA
ATOM     37  H   UNL     1     -63.058 -48.364 -21.566  0.00  0.00    +0.000 HD
ENDBRANCH  35  36
ENDBRANCH  29  35
ENDBRANCH  24  27
ENDBRANCH   5  25
BRANCH   5  38
ATOM     38  C   UNL     1     -59.352 -52.993 -24.769  0.00  0.00    +0.000 C 
ATOM     39  C   UNL     1     -58.116 -53.314 -23.868  0.00  0.00    +0.000 C 
ATOM     40  C   UNL     1     -60.061 -54.334 -25.118  0.00  0.00    +0.000 C 
ATOM     41  C   UNL     1     -58.872 -52.265 -26.048  0.00  0.00    +0.000 C 
ENDBRANCH   5  38
TORSDOF 7
ENDMDL
