MODEL 1
REMARK VINA RESULT:      -6.7      0.000      0.000
REMARK  Name = 11167602_Regorafenib.pdbqt.pdb
REMARK  6 active torsions:
REMARK  status: ('A' for Active; 'I' for Inactive)
REMARK    1  A    between atoms: C_2  and  N_10
REMARK    2  A    between atoms: C_3  and  O_25
REMARK    3  A    between atoms: N_9  and  C_15
REMARK    4  A    between atoms: C_16  and  C_24
REMARK    5  A    between atoms: O_25  and  C_27
REMARK    6  A    between atoms: C_29  and  C_34
REMARK                            x       y       z     vdW  Elec       q    Type
REMARK                         _______ _______ _______ _____ _____    ______ ____
ROOT
ATOM      1  F   UNL     1     -73.773 -56.213 -27.761  0.00  0.00    +0.000 F 
ATOM      2  C   UNL     1     -71.705 -57.171 -27.123  0.00  0.00    +0.000 A 
ATOM      3  C   UNL     1     -73.014 -58.428 -24.997  0.00  0.00    +0.000 A 
ATOM      4  C   UNL     1     -73.077 -56.993 -26.920  0.00  0.00    +0.000 A 
ATOM      5  C   UNL     1     -70.994 -57.973 -26.232  0.00  0.00    +0.000 A 
ATOM      6  C   UNL     1     -73.737 -57.602 -25.858  0.00  0.00    +0.000 A 
ATOM      7  C   UNL     1     -71.641 -58.591 -25.163  0.00  0.00    +0.000 A 
ENDROOT
BRANCH   2  10
ATOM      8  O   UNL     1     -71.501 -58.110 -29.864  0.00  0.00    +0.000 OA
ATOM      9  N   UNL     1     -70.412 -56.133 -30.365  0.00  0.00    +0.000 N 
ATOM     10  N   UNL     1     -71.103 -56.531 -28.227  0.00  0.00    +0.000 N 
ATOM     11  C   UNL     1     -71.049 -57.026 -29.519  0.00  0.00    +0.000 C 
ATOM     12  H   UNL     1     -70.103 -55.253 -29.977  0.00  0.00    +0.000 HD
ATOM     13  H   UNL     1     -70.669 -55.640 -28.031  0.00  0.00    +0.000 HD
BRANCH   9  15
ATOM     14 CL   UNL     1     -69.320 -57.048 -36.112  0.00  0.00    +0.000 Cl
ATOM     15  C   UNL     1     -70.180 -56.332 -31.739  0.00  0.00    +0.000 A 
ATOM     16  C   UNL     1     -68.745 -57.314 -33.450  0.00  0.00    +0.000 A 
ATOM     17  C   UNL     1     -69.052 -57.067 -32.107  0.00  0.00    +0.000 A 
ATOM     18  C   UNL     1     -71.018 -55.836 -32.732  0.00  0.00    +0.000 A 
ATOM     19  C   UNL     1     -69.599 -56.806 -34.431  0.00  0.00    +0.000 A 
ATOM     20  C   UNL     1     -70.728 -56.071 -34.073  0.00  0.00    +0.000 A 
BRANCH  16  24
ATOM     21  F   UNL     1     -67.793 -59.223 -34.516  0.00  0.00    +0.000 F 
ATOM     22  F   UNL     1     -66.608 -57.408 -34.501  0.00  0.00    +0.000 F 
ATOM     23  F   UNL     1     -66.871 -58.563 -32.670  0.00  0.00    +0.000 F 
ATOM     24  C   UNL     1     -67.521 -58.110 -33.776  0.00  0.00    +0.000 C 
ENDBRANCH  16  24
ENDBRANCH   9  15
ENDBRANCH   2  10
BRANCH   3  25
ATOM     25  O   UNL     1     -73.585 -59.001 -23.885  0.00  0.00    +0.000 OA
BRANCH  25  27
ATOM     26  N   UNL     1     -75.534 -56.440 -21.229  0.00  0.00    +0.000 NA
ATOM     27  C   UNL     1     -74.167 -58.165 -22.958  0.00  0.00    +0.000 A 
ATOM     28  C   UNL     1     -73.456 -57.218 -22.229  0.00  0.00    +0.000 A 
ATOM     29  C   UNL     1     -74.179 -56.396 -21.380  0.00  0.00    +0.000 A 
ATOM     30  C   UNL     1     -75.553 -58.232 -22.855  0.00  0.00    +0.000 A 
ATOM     31  C   UNL     1     -76.181 -57.360 -21.980  0.00  0.00    +0.000 A 
BRANCH  29  34
ATOM     32  O   UNL     1     -72.236 -55.326 -20.584  0.00  0.00    +0.000 OA
ATOM     33  N   UNL     1     -74.320 -54.607 -19.806  0.00  0.00    +0.000 N 
ATOM     34  C   UNL     1     -73.460 -55.392 -20.555  0.00  0.00    +0.000 C 
ATOM     35  C   UNL     1     -74.070 -53.534 -18.882  0.00  0.00    +0.000 C 
ATOM     36  H   UNL     1     -75.307 -54.831 -19.928  0.00  0.00    +0.000 HD
ENDBRANCH  29  34
ENDBRANCH  25  27
ENDBRANCH   3  25
TORSDOF 6
ENDMDL
MODEL 2
REMARK VINA RESULT:      -6.6      3.189      4.112
REMARK  Name = 11167602_Regorafenib.pdbqt.pdb
REMARK  6 active torsions:
REMARK  status: ('A' for Active; 'I' for Inactive)
REMARK    1  A    between atoms: C_2  and  N_10
REMARK    2  A    between atoms: C_3  and  O_25
REMARK    3  A    between atoms: N_9  and  C_15
REMARK    4  A    between atoms: C_16  and  C_24
REMARK    5  A    between atoms: O_25  and  C_27
REMARK    6  A    between atoms: C_29  and  C_34
REMARK                            x       y       z     vdW  Elec       q    Type
REMARK                         _______ _______ _______ _____ _____    ______ ____
ROOT
ATOM      1  F   UNL     1     -73.846 -56.274 -27.718  0.00  0.00    +0.000 F 
ATOM      2  C   UNL     1     -71.722 -57.194 -27.225  0.00  0.00    +0.000 A 
ATOM      3  C   UNL     1     -72.882 -58.566 -25.083  0.00  0.00    +0.000 A 
ATOM      4  C   UNL     1     -73.085 -57.064 -26.944  0.00  0.00    +0.000 A 
ATOM      5  C   UNL     1     -70.943 -58.007 -26.403  0.00  0.00    +0.000 A 
ATOM      6  C   UNL     1     -73.671 -57.730 -25.873  0.00  0.00    +0.000 A 
ATOM      7  C   UNL     1     -71.515 -58.682 -25.326  0.00  0.00    +0.000 A 
ENDROOT
BRANCH   2  10
ATOM      8  O   UNL     1     -71.387 -58.130 -29.954  0.00  0.00    +0.000 OA
ATOM      9  N   UNL     1     -70.546 -56.039 -30.472  0.00  0.00    +0.000 N 
ATOM     10  N   UNL     1     -71.197 -56.496 -28.333  0.00  0.00    +0.000 N 
ATOM     11  C   UNL     1     -71.074 -56.995 -29.618  0.00  0.00    +0.000 C 
ATOM     12  H   UNL     1     -70.351 -55.124 -30.093  0.00  0.00    +0.000 HD
ATOM     13  H   UNL     1     -70.877 -55.556 -28.145  0.00  0.00    +0.000 HD
BRANCH   9  15
ATOM     14 CL   UNL     1     -69.325 -56.893 -36.203  0.00  0.00    +0.000 Cl
ATOM     15  C   UNL     1     -70.283 -56.224 -31.842  0.00  0.00    +0.000 A 
ATOM     16  C   UNL     1     -68.817 -57.198 -33.531  0.00  0.00    +0.000 A 
ATOM     17  C   UNL     1     -69.154 -56.965 -32.193  0.00  0.00    +0.000 A 
ATOM     18  C   UNL     1     -71.092 -55.707 -32.849  0.00  0.00    +0.000 A 
ATOM     19  C   UNL     1     -69.642 -56.669 -34.526  0.00  0.00    +0.000 A 
ATOM     20  C   UNL     1     -70.773 -55.927 -34.185  0.00  0.00    +0.000 A 
BRANCH  16  24
ATOM     21  F   UNL     1     -66.980 -58.483 -32.718  0.00  0.00    +0.000 F 
ATOM     22  F   UNL     1     -67.854 -59.095 -34.604  0.00  0.00    +0.000 F 
ATOM     23  F   UNL     1     -66.638 -57.288 -34.492  0.00  0.00    +0.000 F 
ATOM     24  C   UNL     1     -67.593 -58.002 -33.837  0.00  0.00    +0.000 C 
ENDBRANCH  16  24
ENDBRANCH   9  15
ENDBRANCH   2  10
BRANCH   3  25
ATOM     25  O   UNL     1     -73.378 -59.195 -23.965  0.00  0.00    +0.000 OA
BRANCH  25  27
ATOM     26  N   UNL     1     -73.462 -63.364 -23.824  0.00  0.00    +0.000 NA
ATOM     27  C   UNL     1     -73.326 -60.571 -23.926  0.00  0.00    +0.000 A 
ATOM     28  C   UNL     1     -72.356 -61.281 -23.227  0.00  0.00    +0.000 A 
ATOM     29  C   UNL     1     -72.464 -62.662 -23.218  0.00  0.00    +0.000 A 
ATOM     30  C   UNL     1     -74.378 -61.242 -24.542  0.00  0.00    +0.000 A 
ATOM     31  C   UNL     1     -74.395 -62.626 -24.468  0.00  0.00    +0.000 A 
BRANCH  29  34
ATOM     32  O   UNL     1     -71.320 -64.666 -22.737  0.00  0.00    +0.000 OA
ATOM     33  N   UNL     1     -70.681 -62.708 -21.630  0.00  0.00    +0.000 N 
ATOM     34  C   UNL     1     -71.432 -63.465 -22.513  0.00  0.00    +0.000 C 
ATOM     35  C   UNL     1     -69.600 -63.062 -20.751  0.00  0.00    +0.000 C 
ATOM     36  H   UNL     1     -70.944 -61.724 -21.593  0.00  0.00    +0.000 HD
ENDBRANCH  29  34
ENDBRANCH  25  27
ENDBRANCH   3  25
TORSDOF 6
ENDMDL
MODEL 3
REMARK VINA RESULT:      -6.4     21.979     25.253
REMARK  Name = 11167602_Regorafenib.pdbqt.pdb
REMARK  6 active torsions:
REMARK  status: ('A' for Active; 'I' for Inactive)
REMARK    1  A    between atoms: C_2  and  N_10
REMARK    2  A    between atoms: C_3  and  O_25
REMARK    3  A    between atoms: N_9  and  C_15
REMARK    4  A    between atoms: C_16  and  C_24
REMARK    5  A    between atoms: O_25  and  C_27
REMARK    6  A    between atoms: C_29  and  C_34
REMARK                            x       y       z     vdW  Elec       q    Type
REMARK                         _______ _______ _______ _____ _____    ______ ____
ROOT
ATOM      1  F   UNL     1     -64.700 -44.439 -46.056  0.00  0.00    +0.000 F 
ATOM      2  C   UNL     1     -62.915 -45.581 -47.109  0.00  0.00    +0.000 A 
ATOM      3  C   UNL     1     -61.267 -44.844 -44.975  0.00  0.00    +0.000 A 
ATOM      4  C   UNL     1     -63.413 -44.817 -46.049  0.00  0.00    +0.000 A 
ATOM      5  C   UNL     1     -61.572 -45.954 -47.094  0.00  0.00    +0.000 A 
ATOM      6  C   UNL     1     -62.599 -44.433 -44.988  0.00  0.00    +0.000 A 
ATOM      7  C   UNL     1     -60.744 -45.577 -46.038  0.00  0.00    +0.000 A 
ENDROOT
BRANCH   2  10
ATOM      8  O   UNL     1     -62.336 -45.931 -49.933  0.00  0.00    +0.000 OA
ATOM      9  N   UNL     1     -64.560 -46.492 -50.228  0.00  0.00    +0.000 N 
ATOM     10  N   UNL     1     -63.800 -45.943 -48.147  0.00  0.00    +0.000 N 
ATOM     11  C   UNL     1     -63.459 -46.106 -49.479  0.00  0.00    +0.000 C 
ATOM     12  H   UNL     1     -65.433 -46.636 -49.743  0.00  0.00    +0.000 HD
ATOM     13  H   UNL     1     -64.763 -46.076 -47.873  0.00  0.00    +0.000 HD
BRANCH   9  15
ATOM     14 CL   UNL     1     -64.542 -47.640 -56.036  0.00  0.00    +0.000 Cl
ATOM     15  C   UNL     1     -64.561 -46.732 -51.614  0.00  0.00    +0.000 A 
ATOM     16  C   UNL     1     -64.332 -48.370 -53.407  0.00  0.00    +0.000 A 
ATOM     17  C   UNL     1     -64.347 -48.041 -52.047  0.00  0.00    +0.000 A 
ATOM     18  C   UNL     1     -64.766 -45.732 -52.560  0.00  0.00    +0.000 A 
ATOM     19  C   UNL     1     -64.539 -47.351 -54.340  0.00  0.00    +0.000 A 
ATOM     20  C   UNL     1     -64.754 -46.040 -53.917  0.00  0.00    +0.000 A 
BRANCH  16  24
ATOM     21  F   UNL     1     -65.170 -50.352 -54.436  0.00  0.00    +0.000 F 
ATOM     22  F   UNL     1     -63.054 -49.941 -54.664  0.00  0.00    +0.000 F 
ATOM     23  F   UNL     1     -63.843 -50.606 -52.742  0.00  0.00    +0.000 F 
ATOM     24  C   UNL     1     -64.098 -49.794 -53.803  0.00  0.00    +0.000 C 
ENDBRANCH  16  24
ENDBRANCH   9  15
ENDBRANCH   2  10
BRANCH   3  25
ATOM     25  O   UNL     1     -60.388 -44.439 -43.998  0.00  0.00    +0.000 OA
BRANCH  25  27
ATOM     26  N   UNL     1     -59.365 -47.082 -40.936  0.00  0.00    +0.000 NA
ATOM     27  C   UNL     1     -60.019 -45.360 -43.042  0.00  0.00    +0.000 A 
ATOM     28  C   UNL     1     -58.805 -46.038 -43.061  0.00  0.00    +0.000 A 
ATOM     29  C   UNL     1     -58.536 -46.886 -42.000  0.00  0.00    +0.000 A 
ATOM     30  C   UNL     1     -60.889 -45.510 -41.967  0.00  0.00    +0.000 A 
ATOM     31  C   UNL     1     -60.521 -46.379 -40.953  0.00  0.00    +0.000 A 
BRANCH  29  34
ATOM     32  O   UNL     1     -57.131 -48.624 -41.248  0.00  0.00    +0.000 OA
ATOM     33  N   UNL     1     -56.333 -47.153 -42.881  0.00  0.00    +0.000 N 
ATOM     34  C   UNL     1     -57.266 -47.658 -41.992  0.00  0.00    +0.000 C 
ATOM     35  C   UNL     1     -54.994 -47.572 -43.197  0.00  0.00    +0.000 C 
ATOM     36  H   UNL     1     -56.649 -46.337 -43.403  0.00  0.00    +0.000 HD
ENDBRANCH  29  34
ENDBRANCH  25  27
ENDBRANCH   3  25
TORSDOF 6
ENDMDL
MODEL 4
REMARK VINA RESULT:      -6.4      5.050     12.660
REMARK  Name = 11167602_Regorafenib.pdbqt.pdb
REMARK  6 active torsions:
REMARK  status: ('A' for Active; 'I' for Inactive)
REMARK    1  A    between atoms: C_2  and  N_10
REMARK    2  A    between atoms: C_3  and  O_25
REMARK    3  A    between atoms: N_9  and  C_15
REMARK    4  A    between atoms: C_16  and  C_24
REMARK    5  A    between atoms: O_25  and  C_27
REMARK    6  A    between atoms: C_29  and  C_34
REMARK                            x       y       z     vdW  Elec       q    Type
REMARK                         _______ _______ _______ _____ _____    ______ ____
ROOT
ATOM      1  F   UNL     1     -70.199 -55.891 -33.920  0.00  0.00    +0.000 F 
ATOM      2  C   UNL     1     -68.774 -57.240 -32.597  0.00  0.00    +0.000 A 
ATOM      3  C   UNL     1     -67.763 -58.369 -34.946  0.00  0.00    +0.000 A 
ATOM      4  C   UNL     1     -69.250 -56.837 -33.848  0.00  0.00    +0.000 A 
ATOM      5  C   UNL     1     -67.798 -58.233 -32.538  0.00  0.00    +0.000 A 
ATOM      6  C   UNL     1     -68.764 -57.401 -35.023  0.00  0.00    +0.000 A 
ATOM      7  C   UNL     1     -67.301 -58.808 -33.707  0.00  0.00    +0.000 A 
ENDROOT
BRANCH   2  10
ATOM      8  O   UNL     1     -71.024 -58.083 -30.965  0.00  0.00    +0.000 OA
ATOM      9  N   UNL     1     -70.621 -56.247 -29.620  0.00  0.00    +0.000 N 
ATOM     10  N   UNL     1     -69.305 -56.618 -31.447  0.00  0.00    +0.000 N 
ATOM     11  C   UNL     1     -70.378 -57.078 -30.701  0.00  0.00    +0.000 C 
ATOM     12  H   UNL     1     -70.005 -55.459 -29.482  0.00  0.00    +0.000 HD
ATOM     13  H   UNL     1     -68.856 -55.756 -31.169  0.00  0.00    +0.000 HD
BRANCH   9  15
ATOM     14 CL   UNL     1     -74.840 -57.064 -25.546  0.00  0.00    +0.000 Cl
ATOM     15  C   UNL     1     -71.644 -56.421 -28.669  0.00  0.00    +0.000 A 
ATOM     16  C   UNL     1     -72.336 -57.464 -26.575  0.00  0.00    +0.000 A 
ATOM     17  C   UNL     1     -71.377 -57.235 -27.569  0.00  0.00    +0.000 A 
ATOM     18  C   UNL     1     -72.895 -55.823 -28.779  0.00  0.00    +0.000 A 
ATOM     19  C   UNL     1     -73.585 -56.854 -26.705  0.00  0.00    +0.000 A 
ATOM     20  C   UNL     1     -73.862 -56.039 -27.802  0.00  0.00    +0.000 A 
BRANCH  16  24
ATOM     21  F   UNL     1     -72.636 -59.545 -25.449  0.00  0.00    +0.000 F 
ATOM     22  F   UNL     1     -70.659 -58.659 -25.376  0.00  0.00    +0.000 F 
ATOM     23  F   UNL     1     -72.292 -57.796 -24.215  0.00  0.00    +0.000 F 
ATOM     24  C   UNL     1     -71.983 -58.347 -25.420  0.00  0.00    +0.000 C 
ENDBRANCH  16  24
ENDBRANCH   9  15
ENDBRANCH   2  10
BRANCH   3  25
ATOM     25  O   UNL     1     -67.292 -59.022 -36.060  0.00  0.00    +0.000 OA
BRANCH  25  27
ATOM     26  N   UNL     1     -69.457 -58.856 -39.623  0.00  0.00    +0.000 NA
ATOM     27  C   UNL     1     -68.001 -58.887 -37.233  0.00  0.00    +0.000 A 
ATOM     28  C   UNL     1     -67.681 -57.961 -38.220  0.00  0.00    +0.000 A 
ATOM     29  C   UNL     1     -68.439 -57.982 -39.379  0.00  0.00    +0.000 A 
ATOM     30  C   UNL     1     -69.017 -59.815 -37.445  0.00  0.00    +0.000 A 
ATOM     31  C   UNL     1     -69.711 -59.753 -38.643  0.00  0.00    +0.000 A 
BRANCH  29  34
ATOM     32  O   UNL     1     -69.036 -56.659 -41.237  0.00  0.00    +0.000 OA
ATOM     33  N   UNL     1     -66.849 -56.537 -40.420  0.00  0.00    +0.000 N 
ATOM     34  C   UNL     1     -68.157 -56.990 -40.448  0.00  0.00    +0.000 C 
ATOM     35  C   UNL     1     -66.148 -55.597 -41.251  0.00  0.00    +0.000 C 
ATOM     36  H   UNL     1     -66.279 -56.946 -39.680  0.00  0.00    +0.000 HD
ENDBRANCH  29  34
ENDBRANCH  25  27
ENDBRANCH   3  25
TORSDOF 6
ENDMDL
MODEL 5
REMARK VINA RESULT:      -6.3      7.713     15.393
REMARK  Name = 11167602_Regorafenib.pdbqt.pdb
REMARK  6 active torsions:
REMARK  status: ('A' for Active; 'I' for Inactive)
REMARK    1  A    between atoms: C_2  and  N_10
REMARK    2  A    between atoms: C_3  and  O_25
REMARK    3  A    between atoms: N_9  and  C_15
REMARK    4  A    between atoms: C_16  and  C_24
REMARK    5  A    between atoms: O_25  and  C_27
REMARK    6  A    between atoms: C_29  and  C_34
REMARK                            x       y       z     vdW  Elec       q    Type
REMARK                         _______ _______ _______ _____ _____    ______ ____
ROOT
ATOM      1  F   UNL     1     -68.701 -58.792 -38.316  0.00  0.00    +0.000 F 
ATOM      2  C   UNL     1     -67.929 -56.640 -37.707  0.00  0.00    +0.000 A 
ATOM      3  C   UNL     1     -68.101 -55.885 -40.393  0.00  0.00    +0.000 A 
ATOM      4  C   UNL     1     -68.360 -57.546 -38.680  0.00  0.00    +0.000 A 
ATOM      5  C   UNL     1     -67.564 -55.353 -38.102  0.00  0.00    +0.000 A 
ATOM      6  C   UNL     1     -68.437 -57.187 -40.021  0.00  0.00    +0.000 A 
ATOM      7  C   UNL     1     -67.637 -54.978 -39.443  0.00  0.00    +0.000 A 
ENDROOT
BRANCH   2  10
ATOM      8  O   UNL     1     -70.008 -56.469 -35.687  0.00  0.00    +0.000 OA
ATOM      9  N   UNL     1     -68.552 -57.515 -34.227  0.00  0.00    +0.000 N 
ATOM     10  N   UNL     1     -67.884 -57.070 -36.364  0.00  0.00    +0.000 N 
ATOM     11  C   UNL     1     -68.918 -56.971 -35.448  0.00  0.00    +0.000 C 
ATOM     12  H   UNL     1     -67.635 -57.930 -34.152  0.00  0.00    +0.000 HD
ATOM     13  H   UNL     1     -67.006 -57.469 -36.062  0.00  0.00    +0.000 HD
BRANCH   9  15
ATOM     14 CL   UNL     1     -71.939 -57.597 -29.371  0.00  0.00    +0.000 Cl
ATOM     15  C   UNL     1     -69.365 -57.567 -33.080  0.00  0.00    +0.000 A 
ATOM     16  C   UNL     1     -70.239 -56.379 -31.136  0.00  0.00    +0.000 A 
ATOM     17  C   UNL     1     -69.454 -56.417 -32.295  0.00  0.00    +0.000 A 
ATOM     18  C   UNL     1     -70.076 -58.701 -32.701  0.00  0.00    +0.000 A 
ATOM     19  C   UNL     1     -70.943 -57.529 -30.774  0.00  0.00    +0.000 A 
ATOM     20  C   UNL     1     -70.861 -58.683 -31.552  0.00  0.00    +0.000 A 
BRANCH  16  24
ATOM     21  F   UNL     1     -69.487 -54.135 -30.847  0.00  0.00    +0.000 F 
ATOM     22  F   UNL     1     -71.536 -54.568 -30.292  0.00  0.00    +0.000 F 
ATOM     23  F   UNL     1     -69.889 -55.278 -29.051  0.00  0.00    +0.000 F 
ATOM     24  C   UNL     1     -70.291 -55.113 -30.341  0.00  0.00    +0.000 C 
ENDBRANCH  16  24
ENDBRANCH   9  15
ENDBRANCH   2  10
BRANCH   3  25
ATOM     25  O   UNL     1     -68.082 -55.483 -41.708  0.00  0.00    +0.000 OA
BRANCH  25  27
ATOM     26  N   UNL     1     -65.294 -57.221 -44.281  0.00  0.00    +0.000 NA
ATOM     27  C   UNL     1     -67.107 -56.009 -42.526  0.00  0.00    +0.000 A 
ATOM     28  C   UNL     1     -65.813 -56.284 -42.096  0.00  0.00    +0.000 A 
ATOM     29  C   UNL     1     -64.954 -56.875 -43.007  0.00  0.00    +0.000 A 
ATOM     30  C   UNL     1     -67.509 -56.365 -43.810  0.00  0.00    +0.000 A 
ATOM     31  C   UNL     1     -66.571 -56.956 -44.641  0.00  0.00    +0.000 A 
BRANCH  29  34
ATOM     32  O   UNL     1     -62.733 -56.247 -42.523  0.00  0.00    +0.000 OA
ATOM     33  N   UNL     1     -63.331 -58.502 -42.359  0.00  0.00    +0.000 N 
ATOM     34  C   UNL     1     -63.552 -57.157 -42.604  0.00  0.00    +0.000 C 
ATOM     35  C   UNL     1     -62.149 -59.216 -41.957  0.00  0.00    +0.000 C 
ATOM     36  H   UNL     1     -64.151 -59.092 -42.490  0.00  0.00    +0.000 HD
ENDBRANCH  29  34
ENDBRANCH  25  27
ENDBRANCH   3  25
TORSDOF 6
ENDMDL
MODEL 6
REMARK VINA RESULT:      -6.3      2.163      2.656
REMARK  Name = 11167602_Regorafenib.pdbqt.pdb
REMARK  6 active torsions:
REMARK  status: ('A' for Active; 'I' for Inactive)
REMARK    1  A    between atoms: C_2  and  N_10
REMARK    2  A    between atoms: C_3  and  O_25
REMARK    3  A    between atoms: N_9  and  C_15
REMARK    4  A    between atoms: C_16  and  C_24
REMARK    5  A    between atoms: O_25  and  C_27
REMARK    6  A    between atoms: C_29  and  C_34
REMARK                            x       y       z     vdW  Elec       q    Type
REMARK                         _______ _______ _______ _____ _____    ______ ____
ROOT
ATOM      1  F   UNL     1     -73.208 -55.055 -29.091  0.00  0.00    +0.000 F 
ATOM      2  C   UNL     1     -71.646 -56.572 -28.163  0.00  0.00    +0.000 A 
ATOM      3  C   UNL     1     -73.511 -57.176 -26.170  0.00  0.00    +0.000 A 
ATOM      4  C   UNL     1     -72.897 -55.949 -28.140  0.00  0.00    +0.000 A 
ATOM      5  C   UNL     1     -71.334 -57.487 -27.159  0.00  0.00    +0.000 A 
ATOM      6  C   UNL     1     -73.829 -56.231 -27.146  0.00  0.00    +0.000 A 
ATOM      7  C   UNL     1     -72.257 -57.781 -26.156  0.00  0.00    +0.000 A 
ENDROOT
BRANCH   2  10
ATOM      8  O   UNL     1     -71.041 -58.091 -30.563  0.00  0.00    +0.000 OA
ATOM      9  N   UNL     1     -69.607 -56.384 -31.174  0.00  0.00    +0.000 N 
ATOM     10  N   UNL     1     -70.755 -56.244 -29.206  0.00  0.00    +0.000 N 
ATOM     11  C   UNL     1     -70.518 -57.008 -30.337  0.00  0.00    +0.000 C 
ATOM     12  H   UNL     1     -69.260 -55.476 -30.901  0.00  0.00    +0.000 HD
ATOM     13  H   UNL     1     -70.245 -55.379 -29.091  0.00  0.00    +0.000 HD
BRANCH   9  15
ATOM     14 CL   UNL     1     -67.748 -58.465 -36.396  0.00  0.00    +0.000 Cl
ATOM     15  C   UNL     1     -69.140 -56.895 -32.399  0.00  0.00    +0.000 A 
ATOM     16  C   UNL     1     -69.445 -57.012 -34.817  0.00  0.00    +0.000 A 
ATOM     17  C   UNL     1     -69.840 -56.549 -33.556  0.00  0.00    +0.000 A 
ATOM     18  C   UNL     1     -68.024 -57.719 -32.505  0.00  0.00    +0.000 A 
ATOM     19  C   UNL     1     -68.323 -57.838 -34.900  0.00  0.00    +0.000 A 
ATOM     20  C   UNL     1     -67.618 -58.189 -33.750  0.00  0.00    +0.000 A 
BRANCH  16  24
ATOM     21  F   UNL     1     -70.963 -57.628 -36.551  0.00  0.00    +0.000 F 
ATOM     22  F   UNL     1     -71.147 -55.624 -35.745  0.00  0.00    +0.000 F 
ATOM     23  F   UNL     1     -69.465 -56.139 -37.035  0.00  0.00    +0.000 F 
ATOM     24  C   UNL     1     -70.240 -56.601 -36.017  0.00  0.00    +0.000 C 
ENDBRANCH  16  24
ENDBRANCH   9  15
ENDBRANCH   2  10
BRANCH   3  25
ATOM     25  O   UNL     1     -74.352 -57.448 -25.116  0.00  0.00    +0.000 OA
BRANCH  25  27
ATOM     26  N   UNL     1     -73.830 -55.500 -21.464  0.00  0.00    +0.000 NA
ATOM     27  C   UNL     1     -74.173 -56.737 -23.951  0.00  0.00    +0.000 A 
ATOM     28  C   UNL     1     -74.759 -55.498 -23.713  0.00  0.00    +0.000 A 
ATOM     29  C   UNL     1     -74.549 -54.926 -22.469  0.00  0.00    +0.000 A 
ATOM     30  C   UNL     1     -73.449 -57.374 -22.948  0.00  0.00    +0.000 A 
ATOM     31  C   UNL     1     -73.303 -56.716 -21.737  0.00  0.00    +0.000 A 
BRANCH  29  34
ATOM     32  O   UNL     1     -76.150 -53.217 -22.745  0.00  0.00    +0.000 OA
ATOM     33  N   UNL     1     -74.386 -52.881 -21.248  0.00  0.00    +0.000 N 
ATOM     34  C   UNL     1     -75.127 -53.588 -22.179  0.00  0.00    +0.000 C 
ATOM     35  C   UNL     1     -74.565 -51.571 -20.683  0.00  0.00    +0.000 C 
ATOM     36  H   UNL     1     -73.563 -53.375 -20.903  0.00  0.00    +0.000 HD
ENDBRANCH  29  34
ENDBRANCH  25  27
ENDBRANCH   3  25
TORSDOF 6
ENDMDL
MODEL 7
REMARK VINA RESULT:      -6.0     34.783     40.545
REMARK  Name = 11167602_Regorafenib.pdbqt.pdb
REMARK  6 active torsions:
REMARK  status: ('A' for Active; 'I' for Inactive)
REMARK    1  A    between atoms: C_2  and  N_10
REMARK    2  A    between atoms: C_3  and  O_25
REMARK    3  A    between atoms: N_9  and  C_15
REMARK    4  A    between atoms: C_16  and  C_24
REMARK    5  A    between atoms: O_25  and  C_27
REMARK    6  A    between atoms: C_29  and  C_34
REMARK                            x       y       z     vdW  Elec       q    Type
REMARK                         _______ _______ _______ _____ _____    ______ ____
ROOT
ATOM      1  F   UNL     1     -58.732 -63.241 -63.687  0.00  0.00    +0.000 F 
ATOM      2  C   UNL     1     -58.027 -61.244 -64.742  0.00  0.00    +0.000 A 
ATOM      3  C   UNL     1     -58.111 -62.583 -67.195  0.00  0.00    +0.000 A 
ATOM      4  C   UNL     1     -58.402 -62.589 -64.812  0.00  0.00    +0.000 A 
ATOM      5  C   UNL     1     -57.673 -60.584 -65.918  0.00  0.00    +0.000 A 
ATOM      6  C   UNL     1     -58.435 -63.270 -66.025  0.00  0.00    +0.000 A 
ATOM      7  C   UNL     1     -57.701 -61.253 -67.142  0.00  0.00    +0.000 A 
ENDROOT
BRANCH   2  10
ATOM      8  O   UNL     1     -60.146 -59.700 -63.493  0.00  0.00    +0.000 OA
ATOM      9  N   UNL     1     -58.755 -59.437 -61.666  0.00  0.00    +0.000 N 
ATOM     10  N   UNL     1     -58.025 -60.614 -63.480  0.00  0.00    +0.000 N 
ATOM     11  C   UNL     1     -59.077 -59.899 -62.932  0.00  0.00    +0.000 C 
ATOM     12  H   UNL     1     -57.852 -59.686 -61.288  0.00  0.00    +0.000 HD
ATOM     13  H   UNL     1     -57.167 -60.693 -62.953  0.00  0.00    +0.000 HD
BRANCH   9  15
ATOM     14 CL   UNL     1     -62.226 -56.085 -58.234  0.00  0.00    +0.000 Cl
ATOM     15  C   UNL     1     -59.595 -58.668 -60.839  0.00  0.00    +0.000 A 
ATOM     16  C   UNL     1     -60.228 -56.441 -60.071  0.00  0.00    +0.000 A 
ATOM     17  C   UNL     1     -59.436 -57.282 -60.860  0.00  0.00    +0.000 A 
ATOM     18  C   UNL     1     -60.565 -59.225 -60.012  0.00  0.00    +0.000 A 
ATOM     19  C   UNL     1     -61.196 -57.020 -59.247  0.00  0.00    +0.000 A 
ATOM     20  C   UNL     1     -61.362 -58.405 -59.218  0.00  0.00    +0.000 A 
BRANCH  16  24
ATOM     21  F   UNL     1     -61.086 -54.288 -60.632  0.00  0.00    +0.000 F 
ATOM     22  F   UNL     1     -59.751 -54.405 -58.929  0.00  0.00    +0.000 F 
ATOM     23  F   UNL     1     -58.969 -54.620 -60.954  0.00  0.00    +0.000 F 
ATOM     24  C   UNL     1     -60.007 -54.963 -60.143  0.00  0.00    +0.000 C 
ENDBRANCH  16  24
ENDBRANCH   9  15
ENDBRANCH   2  10
BRANCH   3  25
ATOM     25  O   UNL     1     -58.049 -63.212 -68.416  0.00  0.00    +0.000 OA
BRANCH  25  27
ATOM     26  N   UNL     1     -60.960 -65.985 -69.532  0.00  0.00    +0.000 NA
ATOM     27  C   UNL     1     -59.062 -64.085 -68.742  0.00  0.00    +0.000 A 
ATOM     28  C   UNL     1     -60.350 -63.675 -69.069  0.00  0.00    +0.000 A 
ATOM     29  C   UNL     1     -61.253 -64.656 -69.443  0.00  0.00    +0.000 A 
ATOM     30  C   UNL     1     -58.709 -65.427 -68.839  0.00  0.00    +0.000 A 
ATOM     31  C   UNL     1     -59.687 -66.328 -69.229  0.00  0.00    +0.000 A 
BRANCH  29  34
ATOM     32  O   UNL     1     -63.584 -64.683 -69.088  0.00  0.00    +0.000 OA
ATOM     33  N   UNL     1     -62.728 -63.444 -70.877  0.00  0.00    +0.000 N 
ATOM     34  C   UNL     1     -62.650 -64.271 -69.769  0.00  0.00    +0.000 C 
ATOM     35  C   UNL     1     -63.853 -62.843 -71.540  0.00  0.00    +0.000 C 
ATOM     36  H   UNL     1     -61.827 -63.225 -71.301  0.00  0.00    +0.000 HD
ENDBRANCH  29  34
ENDBRANCH  25  27
ENDBRANCH   3  25
TORSDOF 6
ENDMDL
MODEL 8
REMARK VINA RESULT:      -6.0     11.554     14.170
REMARK  Name = 11167602_Regorafenib.pdbqt.pdb
REMARK  6 active torsions:
REMARK  status: ('A' for Active; 'I' for Inactive)
REMARK    1  A    between atoms: C_2  and  N_10
REMARK    2  A    between atoms: C_3  and  O_25
REMARK    3  A    between atoms: N_9  and  C_15
REMARK    4  A    between atoms: C_16  and  C_24
REMARK    5  A    between atoms: O_25  and  C_27
REMARK    6  A    between atoms: C_29  and  C_34
REMARK                            x       y       z     vdW  Elec       q    Type
REMARK                         _______ _______ _______ _____ _____    ______ ____
ROOT
ATOM      1  F   UNL     1     -63.126 -54.461 -18.578  0.00  0.00    +0.000 F 
ATOM      2  C   UNL     1     -65.063 -54.322 -17.225  0.00  0.00    +0.000 A 
ATOM      3  C   UNL     1     -63.598 -55.438 -15.122  0.00  0.00    +0.000 A 
ATOM      4  C   UNL     1     -63.720 -54.671 -17.393  0.00  0.00    +0.000 A 
ATOM      5  C   UNL     1     -65.669 -54.560 -15.992  0.00  0.00    +0.000 A 
ATOM      6  C   UNL     1     -62.984 -55.240 -16.358  0.00  0.00    +0.000 A 
ATOM      7  C   UNL     1     -64.944 -55.129 -14.945  0.00  0.00    +0.000 A 
ENDROOT
BRANCH   2  10
ATOM      8  O   UNL     1     -66.485 -51.792 -17.321  0.00  0.00    +0.000 OA
ATOM      9  N   UNL     1     -66.938 -52.234 -19.545  0.00  0.00    +0.000 N 
ATOM     10  N   UNL     1     -65.745 -53.741 -18.314  0.00  0.00    +0.000 N 
ATOM     11  C   UNL     1     -66.397 -52.519 -18.301  0.00  0.00    +0.000 C 
ATOM     12  H   UNL     1     -66.779 -52.894 -20.292  0.00  0.00    +0.000 HD
ATOM     13  H   UNL     1     -65.758 -54.288 -19.164  0.00  0.00    +0.000 HD
BRANCH   9  15
ATOM     14 CL   UNL     1     -70.146 -47.450 -20.918  0.00  0.00    +0.000 Cl
ATOM     15  C   UNL     1     -67.672 -51.078 -19.870  0.00  0.00    +0.000 A 
ATOM     16  C   UNL     1     -69.853 -50.121 -20.398  0.00  0.00    +0.000 A 
ATOM     17  C   UNL     1     -69.046 -51.217 -20.072  0.00  0.00    +0.000 A 
ATOM     18  C   UNL     1     -67.094 -49.819 -19.997  0.00  0.00    +0.000 A 
ATOM     19  C   UNL     1     -69.253 -48.867 -20.521  0.00  0.00    +0.000 A 
ATOM     20  C   UNL     1     -67.880 -48.718 -20.322  0.00  0.00    +0.000 A 
BRANCH  16  24
ATOM     21  F   UNL     1     -71.699 -51.632 -20.381  0.00  0.00    +0.000 F 
ATOM     22  F   UNL     1     -72.088 -49.592 -19.762  0.00  0.00    +0.000 F 
ATOM     23  F   UNL     1     -71.732 -50.053 -21.864  0.00  0.00    +0.000 F 
ATOM     24  C   UNL     1     -71.319 -50.340 -20.599  0.00  0.00    +0.000 C 
ENDBRANCH  16  24
ENDBRANCH   9  15
ENDBRANCH   2  10
BRANCH   3  25
ATOM     25  O   UNL     1     -62.954 -56.064 -14.080  0.00  0.00    +0.000 OA
BRANCH  25  27
ATOM     26  N   UNL     1     -64.656 -59.360 -12.170  0.00  0.00    +0.000 NA
ATOM     27  C   UNL     1     -63.565 -57.159 -13.512  0.00  0.00    +0.000 A 
ATOM     28  C   UNL     1     -63.933 -58.290 -14.233  0.00  0.00    +0.000 A 
ATOM     29  C   UNL     1     -64.478 -59.346 -13.522  0.00  0.00    +0.000 A 
ATOM     30  C   UNL     1     -63.706 -57.134 -12.128  0.00  0.00    +0.000 A 
ATOM     31  C   UNL     1     -64.258 -58.247 -11.513  0.00  0.00    +0.000 A 
BRANCH  29  34
ATOM     32  O   UNL     1     -65.737 -61.327 -13.752  0.00  0.00    +0.000 OA
ATOM     33  N   UNL     1     -64.305 -60.691 -15.487  0.00  0.00    +0.000 N 
ATOM     34  C   UNL     1     -64.918 -60.563 -14.253  0.00  0.00    +0.000 C 
ATOM     35  C   UNL     1     -64.422 -61.694 -16.510  0.00  0.00    +0.000 C 
ATOM     36  H   UNL     1     -63.649 -59.943 -15.710  0.00  0.00    +0.000 HD
ENDBRANCH  29  34
ENDBRANCH  25  27
ENDBRANCH   3  25
TORSDOF 6
ENDMDL
MODEL 9
REMARK VINA RESULT:      -6.0     12.072     15.374
REMARK  Name = 11167602_Regorafenib.pdbqt.pdb
REMARK  6 active torsions:
REMARK  status: ('A' for Active; 'I' for Inactive)
REMARK    1  A    between atoms: C_2  and  N_10
REMARK    2  A    between atoms: C_3  and  O_25
REMARK    3  A    between atoms: N_9  and  C_15
REMARK    4  A    between atoms: C_16  and  C_24
REMARK    5  A    between atoms: O_25  and  C_27
REMARK    6  A    between atoms: C_29  and  C_34
REMARK                            x       y       z     vdW  Elec       q    Type
REMARK                         _______ _______ _______ _____ _____    ______ ____
ROOT
ATOM      1  F   UNL     1     -63.372 -54.140 -13.598  0.00  0.00    +0.000 F 
ATOM      2  C   UNL     1     -64.136 -55.642 -15.260  0.00  0.00    +0.000 A 
ATOM      3  C   UNL     1     -63.786 -57.736 -13.441  0.00  0.00    +0.000 A 
ATOM      4  C   UNL     1     -63.659 -55.398 -13.969  0.00  0.00    +0.000 A 
ATOM      5  C   UNL     1     -64.416 -56.955 -15.635  0.00  0.00    +0.000 A 
ATOM      6  C   UNL     1     -63.468 -56.433 -13.059  0.00  0.00    +0.000 A 
ATOM      7  C   UNL     1     -64.230 -58.003 -14.734  0.00  0.00    +0.000 A 
ENDROOT
BRANCH   2  10
ATOM      8  O   UNL     1     -66.402 -53.835 -15.440  0.00  0.00    +0.000 OA
ATOM      9  N   UNL     1     -65.259 -52.711 -17.106  0.00  0.00    +0.000 N 
ATOM     10  N   UNL     1     -64.314 -54.543 -16.127  0.00  0.00    +0.000 N 
ATOM     11  C   UNL     1     -65.418 -53.707 -16.156  0.00  0.00    +0.000 C 
ATOM     12  H   UNL     1     -64.392 -52.684 -17.621  0.00  0.00    +0.000 HD
ATOM     13  H   UNL     1     -63.565 -54.379 -16.784  0.00  0.00    +0.000 HD
BRANCH   9  15
ATOM     14 CL   UNL     1     -69.253 -48.552 -18.452  0.00  0.00    +0.000 Cl
ATOM     15  C   UNL     1     -66.199 -51.705 -17.399  0.00  0.00    +0.000 A 
ATOM     16  C   UNL     1     -67.959 -50.921 -18.896  0.00  0.00    +0.000 A 
ATOM     17  C   UNL     1     -66.998 -51.872 -18.530  0.00  0.00    +0.000 A 
ATOM     18  C   UNL     1     -66.362 -50.565 -16.618  0.00  0.00    +0.000 A 
ATOM     19  C   UNL     1     -68.106 -49.785 -18.098  0.00  0.00    +0.000 A 
ATOM     20  C   UNL     1     -67.311 -49.609 -16.966  0.00  0.00    +0.000 A 
BRANCH  16  24
ATOM     21  F   UNL     1     -68.472 -52.335 -20.747  0.00  0.00    +0.000 F 
ATOM     22  F   UNL     1     -70.117 -51.239 -19.856  0.00  0.00    +0.000 F 
ATOM     23  F   UNL     1     -68.630 -50.197 -21.065  0.00  0.00    +0.000 F 
ATOM     24  C   UNL     1     -68.784 -51.163 -20.120  0.00  0.00    +0.000 C 
ENDBRANCH  16  24
ENDBRANCH   9  15
ENDBRANCH   2  10
BRANCH   3  25
ATOM     25  O   UNL     1     -63.552 -58.814 -12.621  0.00  0.00    +0.000 OA
BRANCH  25  27
ATOM     26  N   UNL     1     -66.802 -60.199 -10.401  0.00  0.00    +0.000 NA
ATOM     27  C   UNL     1     -64.585 -59.251 -11.822  0.00  0.00    +0.000 A 
ATOM     28  C   UNL     1     -65.020 -58.568 -10.691  0.00  0.00    +0.000 A 
ATOM     29  C   UNL     1     -66.114 -59.085 -10.019  0.00  0.00    +0.000 A 
ATOM     30  C   UNL     1     -65.268 -60.380 -12.265  0.00  0.00    +0.000 A 
ATOM     31  C   UNL     1     -66.355 -60.811 -11.522  0.00  0.00    +0.000 A 
BRANCH  29  34
ATOM     32  O   UNL     1     -66.589 -57.185  -8.706  0.00  0.00    +0.000 OA
ATOM     33  N   UNL     1     -67.013 -59.306  -7.818  0.00  0.00    +0.000 N 
ATOM     34  C   UNL     1     -66.595 -58.409  -8.787  0.00  0.00    +0.000 C 
ATOM     35  C   UNL     1     -67.538 -59.104  -6.495  0.00  0.00    +0.000 C 
ATOM     36  H   UNL     1     -66.929 -60.285  -8.089  0.00  0.00    +0.000 HD
ENDBRANCH  29  34
ENDBRANCH  25  27
ENDBRANCH   3  25
TORSDOF 6
ENDMDL
