MODEL 1
REMARK VINA RESULT:      -5.7      0.000      0.000
REMARK  Name = 114778_Kahweol.pdbqt.pdb
REMARK  3 active torsions:
REMARK  status: ('A' for Active; 'I' for Inactive)
REMARK    1  A    between atoms: C_8  and  O_21
REMARK    2  A    between atoms: C_8  and  C_23
REMARK    3  A    between atoms: C_23  and  O_24
REMARK                            x       y       z     vdW  Elec       q    Type
REMARK                         _______ _______ _______ _____ _____    ______ ____
ROOT
ATOM      1  O   UNL     1     -62.446 -47.317 -61.403  0.00  0.00    +0.000 OA
ATOM      2  C   UNL     1     -64.920 -46.778 -55.675  0.00  0.00    +0.000 C 
ATOM      3  C   UNL     1     -65.638 -47.157 -57.043  0.00  0.00    +0.000 C 
ATOM      4  C   UNL     1     -66.660 -47.685 -54.303  0.00  0.00    +0.000 C 
ATOM      5  C   UNL     1     -66.000 -46.433 -54.711  0.00  0.00    +0.000 C 
ATOM      6  C   UNL     1     -64.498 -48.029 -55.007  0.00  0.00    +0.000 C 
ATOM      7  C   UNL     1     -65.311 -46.440 -58.358  0.00  0.00    +0.000 C 
ATOM      8  C   UNL     1     -65.421 -48.633 -54.025  0.00  0.00    +0.000 C 
ATOM      9  C   UNL     1     -63.875 -45.823 -55.936  0.00  0.00    +0.000 C 
ATOM     10  C   UNL     1     -66.894 -47.853 -56.818  0.00  0.00    +0.000 C 
ATOM     11  C   UNL     1     -67.490 -48.098 -55.425  0.00  0.00    +0.000 C 
ATOM     12  C   UNL     1     -63.840 -45.753 -58.441  0.00  0.00    +0.000 C 
ATOM     13  C   UNL     1     -63.297 -45.307 -57.215  0.00  0.00    +0.000 C 
ATOM     14  C   UNL     1     -66.345 -45.290 -58.583  0.00  0.00    +0.000 C 
ATOM     15  C   UNL     1     -65.347 -47.425 -59.474  0.00  0.00    +0.000 C 
ATOM     16  C   UNL     1     -62.989 -46.124 -59.549  0.00  0.00    +0.000 A 
ATOM     17  C   UNL     1     -64.616 -47.734 -60.372  0.00  0.00    +0.000 C 
ATOM     18  C   UNL     1     -63.377 -47.075 -60.469  0.00  0.00    +0.000 A 
ATOM     19  C   UNL     1     -61.694 -45.739 -59.949  0.00  0.00    +0.000 A 
ATOM     20  C   UNL     1     -61.405 -46.480 -61.088  0.00  0.00    +0.000 A 
ENDROOT
BRANCH   8  21
ATOM     21  O   UNL     1     -64.921 -48.415 -52.717  0.00  0.00    +0.000 OA
ATOM     22  H   UNL     1     -64.162 -49.013 -52.619  0.00  0.00    +0.000 HD
ENDBRANCH   8  21
BRANCH   8  23
ATOM     23  C   UNL     1     -65.701 -50.062 -54.215  0.00  0.00    +0.000 C 
BRANCH  23  24
ATOM     24  O   UNL     1     -65.965 -51.360 -54.372  0.00  0.00    +0.000 OA
ATOM     25  H   UNL     1     -66.870 -51.569 -54.080  0.00  0.00    +0.000 HD
ENDBRANCH  23  24
ENDBRANCH   8  23
TORSDOF 3
ENDMDL
MODEL 2
REMARK VINA RESULT:      -5.4      9.305     10.975
REMARK  Name = 114778_Kahweol.pdbqt.pdb
REMARK  3 active torsions:
REMARK  status: ('A' for Active; 'I' for Inactive)
REMARK    1  A    between atoms: C_8  and  O_21
REMARK    2  A    between atoms: C_8  and  C_23
REMARK    3  A    between atoms: C_23  and  O_24
REMARK                            x       y       z     vdW  Elec       q    Type
REMARK                         _______ _______ _______ _____ _____    ______ ____
ROOT
ATOM      1  O   UNL     1     -58.629 -54.611 -60.718  0.00  0.00    +0.000 OA
ATOM      2  C   UNL     1     -61.959 -57.514 -56.279  0.00  0.00    +0.000 C 
ATOM      3  C   UNL     1     -60.640 -58.003 -57.022  0.00  0.00    +0.000 C 
ATOM      4  C   UNL     1     -61.695 -59.018 -54.436  0.00  0.00    +0.000 C 
ATOM      5  C   UNL     1     -62.535 -58.709 -55.605  0.00  0.00    +0.000 C 
ATOM      6  C   UNL     1     -61.562 -56.805 -55.043  0.00  0.00    +0.000 C 
ATOM      7  C   UNL     1     -60.433 -57.803 -58.527  0.00  0.00    +0.000 C 
ATOM      8  C   UNL     1     -61.490 -57.585 -53.791  0.00  0.00    +0.000 C 
ATOM      9  C   UNL     1     -62.771 -56.763 -57.200  0.00  0.00    +0.000 C 
ATOM     10  C   UNL     1     -59.942 -59.027 -56.261  0.00  0.00    +0.000 C 
ATOM     11  C   UNL     1     -60.475 -59.622 -54.951  0.00  0.00    +0.000 C 
ATOM     12  C   UNL     1     -61.269 -56.581 -59.199  0.00  0.00    +0.000 C 
ATOM     13  C   UNL     1     -62.504 -56.268 -58.586  0.00  0.00    +0.000 C 
ATOM     14  C   UNL     1     -60.873 -59.101 -59.280  0.00  0.00    +0.000 C 
ATOM     15  C   UNL     1     -59.001 -57.488 -58.786  0.00  0.00    +0.000 C 
ATOM     16  C   UNL     1     -60.525 -55.589 -59.939  0.00  0.00    +0.000 A 
ATOM     17  C   UNL     1     -58.403 -56.641 -59.387  0.00  0.00    +0.000 C 
ATOM     18  C   UNL     1     -59.149 -55.632 -60.022  0.00  0.00    +0.000 A 
ATOM     19  C   UNL     1     -60.894 -54.429 -60.650  0.00  0.00    +0.000 A 
ATOM     20  C   UNL     1     -59.713 -53.869 -61.118  0.00  0.00    +0.000 A 
ENDROOT
BRANCH   8  21
ATOM     21  O   UNL     1     -62.597 -57.255 -52.969  0.00  0.00    +0.000 OA
ATOM     22  H   UNL     1     -63.354 -57.741 -53.337  0.00  0.00    +0.000 HD
ENDBRANCH   8  21
BRANCH   8  23
ATOM     23  C   UNL     1     -60.246 -57.440 -53.025  0.00  0.00    +0.000 C 
BRANCH  23  24
ATOM     24  O   UNL     1     -59.110 -57.296 -52.342  0.00  0.00    +0.000 OA
ATOM     25  H   UNL     1     -58.934 -56.357 -52.153  0.00  0.00    +0.000 HD
ENDBRANCH  23  24
ENDBRANCH   8  23
TORSDOF 3
ENDMDL
MODEL 3
REMARK VINA RESULT:      -5.3     19.703     23.537
REMARK  Name = 114778_Kahweol.pdbqt.pdb
REMARK  3 active torsions:
REMARK  status: ('A' for Active; 'I' for Inactive)
REMARK    1  A    between atoms: C_8  and  O_21
REMARK    2  A    between atoms: C_8  and  C_23
REMARK    3  A    between atoms: C_23  and  O_24
REMARK                            x       y       z     vdW  Elec       q    Type
REMARK                         _______ _______ _______ _____ _____    ______ ____
ROOT
ATOM      1  O   UNL     1     -65.536 -48.214 -29.854  0.00  0.00    +0.000 OA
ATOM      2  C   UNL     1     -65.356 -47.355 -36.055  0.00  0.00    +0.000 C 
ATOM      3  C   UNL     1     -65.247 -46.275 -34.891  0.00  0.00    +0.000 C 
ATOM      4  C   UNL     1     -64.376 -45.932 -37.712  0.00  0.00    +0.000 C 
ATOM      5  C   UNL     1     -65.625 -46.601 -37.309  0.00  0.00    +0.000 C 
ATOM      6  C   UNL     1     -63.989 -47.791 -36.416  0.00  0.00    +0.000 C 
ATOM      7  C   UNL     1     -66.135 -46.334 -33.643  0.00  0.00    +0.000 C 
ATOM      8  C   UNL     1     -63.309 -47.088 -37.522  0.00  0.00    +0.000 C 
ATOM      9  C   UNL     1     -66.262 -48.398 -35.651  0.00  0.00    +0.000 C 
ATOM     10  C   UNL     1     -64.618 -45.048 -35.353  0.00  0.00    +0.000 C 
ATOM     11  C   UNL     1     -64.203 -44.803 -36.809  0.00  0.00    +0.000 C 
ATOM     12  C   UNL     1     -66.718 -47.802 -33.259  0.00  0.00    +0.000 C 
ATOM     13  C   UNL     1     -66.928 -48.685 -34.343  0.00  0.00    +0.000 C 
ATOM     14  C   UNL     1     -67.378 -45.410 -33.855  0.00  0.00    +0.000 C 
ATOM     15  C   UNL     1     -65.340 -45.906 -32.459  0.00  0.00    +0.000 C 
ATOM     16  C   UNL     1     -66.462 -48.296 -31.925  0.00  0.00    +0.000 A 
ATOM     17  C   UNL     1     -65.122 -46.346 -31.365  0.00  0.00    +0.000 C 
ATOM     18  C   UNL     1     -65.696 -47.584 -31.027  0.00  0.00    +0.000 A 
ATOM     19  C   UNL     1     -66.810 -49.481 -31.247  0.00  0.00    +0.000 A 
ATOM     20  C   UNL     1     -66.236 -49.387 -29.985  0.00  0.00    +0.000 A 
ENDROOT
BRANCH   8  21
ATOM     21  O   UNL     1     -63.285 -47.925 -38.665  0.00  0.00    +0.000 OA
ATOM     22  H   UNL     1     -62.510 -48.501 -38.556  0.00  0.00    +0.000 HD
ENDBRANCH   8  21
BRANCH   8  23
ATOM     23  C   UNL     1     -61.951 -46.613 -37.229  0.00  0.00    +0.000 C 
BRANCH  23  24
ATOM     24  O   UNL     1     -60.712 -46.198 -36.961  0.00  0.00    +0.000 OA
ATOM     25  H   UNL     1     -60.726 -45.388 -36.420  0.00  0.00    +0.000 HD
ENDBRANCH  23  24
ENDBRANCH   8  23
TORSDOF 3
ENDMDL
MODEL 4
REMARK VINA RESULT:      -5.3      9.916     12.660
REMARK  Name = 114778_Kahweol.pdbqt.pdb
REMARK  3 active torsions:
REMARK  status: ('A' for Active; 'I' for Inactive)
REMARK    1  A    between atoms: C_8  and  O_21
REMARK    2  A    between atoms: C_8  and  C_23
REMARK    3  A    between atoms: C_23  and  O_24
REMARK                            x       y       z     vdW  Elec       q    Type
REMARK                         _______ _______ _______ _____ _____    ______ ____
ROOT
ATOM      1  O   UNL     1     -60.212 -56.572 -50.551  0.00  0.00    +0.000 OA
ATOM      2  C   UNL     1     -58.823 -56.687 -56.657  0.00  0.00    +0.000 C 
ATOM      3  C   UNL     1     -59.598 -57.770 -55.786  0.00  0.00    +0.000 C 
ATOM      4  C   UNL     1     -59.665 -57.501 -58.745  0.00  0.00    +0.000 C 
ATOM      5  C   UNL     1     -58.447 -57.358 -57.931  0.00  0.00    +0.000 C 
ATOM      6  C   UNL     1     -59.818 -55.764 -57.246  0.00  0.00    +0.000 C 
ATOM      7  C   UNL     1     -59.143 -58.152 -54.373  0.00  0.00    +0.000 C 
ATOM      8  C   UNL     1     -60.328 -56.068 -58.599  0.00  0.00    +0.000 C 
ATOM      9  C   UNL     1     -57.799 -56.075 -55.852  0.00  0.00    +0.000 C 
ATOM     10  C   UNL     1     -60.412 -58.645 -56.614  0.00  0.00    +0.000 C 
ATOM     11  C   UNL     1     -60.436 -58.581 -58.147  0.00  0.00    +0.000 C 
ATOM     12  C   UNL     1     -58.273 -57.030 -53.583  0.00  0.00    +0.000 C 
ATOM     13  C   UNL     1     -57.491 -56.173 -54.391  0.00  0.00    +0.000 C 
ATOM     14  C   UNL     1     -58.244 -59.428 -54.453  0.00  0.00    +0.000 C 
ATOM     15  C   UNL     1     -60.342 -58.390 -53.522  0.00  0.00    +0.000 C 
ATOM     16  C   UNL     1     -58.742 -56.614 -52.281  0.00  0.00    +0.000 A 
ATOM     17  C   UNL     1     -60.723 -58.013 -52.450  0.00  0.00    +0.000 C 
ATOM     18  C   UNL     1     -59.919 -57.096 -51.750  0.00  0.00    +0.000 A 
ATOM     19  C   UNL     1     -58.259 -55.701 -51.322  0.00  0.00    +0.000 A 
ATOM     20  C   UNL     1     -59.176 -55.712 -50.280  0.00  0.00    +0.000 A 
ENDROOT
BRANCH   8  21
ATOM     21  O   UNL     1     -59.754 -55.167 -59.529  0.00  0.00    +0.000 OA
ATOM     22  H   UNL     1     -59.042 -55.658 -59.971  0.00  0.00    +0.000 HD
ENDBRANCH   8  21
BRANCH   8  23
ATOM     23  C   UNL     1     -61.789 -56.063 -58.740  0.00  0.00    +0.000 C 
BRANCH  23  24
ATOM     24  O   UNL     1     -63.116 -56.076 -58.872  0.00  0.00    +0.000 OA
ATOM     25  H   UNL     1     -63.552 -55.964 -58.009  0.00  0.00    +0.000 HD
ENDBRANCH  23  24
ENDBRANCH   8  23
TORSDOF 3
ENDMDL
MODEL 5
REMARK VINA RESULT:      -5.3      3.430      5.052
REMARK  Name = 114778_Kahweol.pdbqt.pdb
REMARK  3 active torsions:
REMARK  status: ('A' for Active; 'I' for Inactive)
REMARK    1  A    between atoms: C_8  and  O_21
REMARK    2  A    between atoms: C_8  and  C_23
REMARK    3  A    between atoms: C_23  and  O_24
REMARK                            x       y       z     vdW  Elec       q    Type
REMARK                         _______ _______ _______ _____ _____    ______ ____
ROOT
ATOM      1  O   UNL     1     -61.269 -44.488 -60.539  0.00  0.00    +0.000 OA
ATOM      2  C   UNL     1     -66.971 -46.846 -59.466  0.00  0.00    +0.000 C 
ATOM      3  C   UNL     1     -66.125 -45.830 -58.581  0.00  0.00    +0.000 C 
ATOM      4  C   UNL     1     -69.059 -46.281 -58.442  0.00  0.00    +0.000 C 
ATOM      5  C   UNL     1     -68.066 -47.356 -58.597  0.00  0.00    +0.000 C 
ATOM      6  C   UNL     1     -67.835 -46.064 -60.377  0.00  0.00    +0.000 C 
ATOM      7  C   UNL     1     -64.618 -46.003 -58.362  0.00  0.00    +0.000 C 
ATOM      8  C   UNL     1     -69.209 -45.756 -59.930  0.00  0.00    +0.000 C 
ATOM      9  C   UNL     1     -66.077 -47.782 -60.098  0.00  0.00    +0.000 C 
ATOM     10  C   UNL     1     -66.971 -45.077 -57.669  0.00  0.00    +0.000 C 
ATOM     11  C   UNL     1     -68.480 -45.313 -57.522  0.00  0.00    +0.000 C 
ATOM     12  C   UNL     1     -63.829 -46.842 -59.509  0.00  0.00    +0.000 C 
ATOM     13  C   UNL     1     -64.585 -47.832 -60.179  0.00  0.00    +0.000 C 
ATOM     14  C   UNL     1     -64.380 -46.765 -57.019  0.00  0.00    +0.000 C 
ATOM     15  C   UNL     1     -63.971 -44.662 -58.343  0.00  0.00    +0.000 C 
ATOM     16  C   UNL     1     -62.692 -46.211 -60.139  0.00  0.00    +0.000 A 
ATOM     17  C   UNL     1     -63.037 -44.150 -58.895  0.00  0.00    +0.000 C 
ATOM     18  C   UNL     1     -62.323 -44.918 -59.831  0.00  0.00    +0.000 A 
ATOM     19  C   UNL     1     -61.782 -46.621 -61.133  0.00  0.00    +0.000 A 
ATOM     20  C   UNL     1     -60.925 -45.548 -61.341  0.00  0.00    +0.000 A 
ENDROOT
BRANCH   8  21
ATOM     21  O   UNL     1     -70.127 -46.565 -60.645  0.00  0.00    +0.000 OA
ATOM     22  H   UNL     1     -70.641 -47.042 -59.972  0.00  0.00    +0.000 HD
ENDBRANCH   8  21
BRANCH   8  23
ATOM     23  C   UNL     1     -69.608 -44.346 -60.035  0.00  0.00    +0.000 C 
BRANCH  23  24
ATOM     24  O   UNL     1     -69.986 -43.071 -60.134  0.00  0.00    +0.000 OA
ATOM     25  H   UNL     1     -69.995 -42.643 -59.260  0.00  0.00    +0.000 HD
ENDBRANCH  23  24
ENDBRANCH   8  23
TORSDOF 3
ENDMDL
MODEL 6
REMARK VINA RESULT:      -5.2     28.647     32.902
REMARK  Name = 114778_Kahweol.pdbqt.pdb
REMARK  3 active torsions:
REMARK  status: ('A' for Active; 'I' for Inactive)
REMARK    1  A    between atoms: C_8  and  O_21
REMARK    2  A    between atoms: C_8  and  C_23
REMARK    3  A    between atoms: C_23  and  O_24
REMARK                            x       y       z     vdW  Elec       q    Type
REMARK                         _______ _______ _______ _____ _____    ______ ____
ROOT
ATOM      1  O   UNL     1     -50.610 -62.278 -75.984  0.00  0.00    +0.000 OA
ATOM      2  C   UNL     1     -47.872 -62.907 -81.580  0.00  0.00    +0.000 C 
ATOM      3  C   UNL     1     -47.285 -63.230 -80.137  0.00  0.00    +0.000 C 
ATOM      4  C   UNL     1     -46.275 -64.269 -82.732  0.00  0.00    +0.000 C 
ATOM      5  C   UNL     1     -46.713 -62.880 -82.513  0.00  0.00    +0.000 C 
ATOM      6  C   UNL     1     -48.488 -64.140 -82.120  0.00  0.00    +0.000 C 
ATOM      7  C   UNL     1     -47.525 -62.306 -78.938  0.00  0.00    +0.000 C 
ATOM      8  C   UNL     1     -47.654 -65.015 -82.969  0.00  0.00    +0.000 C 
ATOM      9  C   UNL     1     -48.737 -61.759 -81.496  0.00  0.00    +0.000 C 
ATOM     10  C   UNL     1     -46.167 -64.157 -80.206  0.00  0.00    +0.000 C 
ATOM     11  C   UNL     1     -45.575 -64.676 -81.522  0.00  0.00    +0.000 C 
ATOM     12  C   UNL     1     -48.850 -61.368 -79.022  0.00  0.00    +0.000 C 
ATOM     13  C   UNL     1     -49.259 -60.992 -80.322  0.00  0.00    +0.000 C 
ATOM     14  C   UNL     1     -46.309 -61.335 -78.789  0.00  0.00    +0.000 C 
ATOM     15  C   UNL     1     -47.708 -63.133 -77.713  0.00  0.00    +0.000 C 
ATOM     16  C   UNL     1     -49.794 -61.442 -77.930  0.00  0.00    +0.000 A 
ATOM     17  C   UNL     1     -48.515 -63.194 -76.829  0.00  0.00    +0.000 C 
ATOM     18  C   UNL     1     -49.618 -62.323 -76.884  0.00  0.00    +0.000 A 
ATOM     19  C   UNL     1     -51.012 -60.790 -77.655  0.00  0.00    +0.000 A 
ATOM     20  C   UNL     1     -51.472 -61.319 -76.456  0.00  0.00    +0.000 A 
ENDROOT
BRANCH   8  21
ATOM     21  O   UNL     1     -48.058 -64.879 -84.320  0.00  0.00    +0.000 OA
ATOM     22  H   UNL     1     -48.906 -65.349 -84.392  0.00  0.00    +0.000 HD
ENDBRANCH   8  21
BRANCH   8  23
ATOM     23  C   UNL     1     -47.643 -66.435 -82.595  0.00  0.00    +0.000 C 
BRANCH  23  24
ATOM     24  O   UNL     1     -47.652 -67.724 -82.254  0.00  0.00    +0.000 OA
ATOM     25  H   UNL     1     -48.333 -68.211 -82.751  0.00  0.00    +0.000 HD
ENDBRANCH  23  24
ENDBRANCH   8  23
TORSDOF 3
ENDMDL
MODEL 7
REMARK VINA RESULT:      -5.2     27.895     31.649
REMARK  Name = 114778_Kahweol.pdbqt.pdb
REMARK  3 active torsions:
REMARK  status: ('A' for Active; 'I' for Inactive)
REMARK    1  A    between atoms: C_8  and  O_21
REMARK    2  A    between atoms: C_8  and  C_23
REMARK    3  A    between atoms: C_23  and  O_24
REMARK                            x       y       z     vdW  Elec       q    Type
REMARK                         _______ _______ _______ _____ _____    ______ ____
ROOT
ATOM      1  O   UNL     1     -69.602 -58.967 -32.729  0.00  0.00    +0.000 OA
ATOM      2  C   UNL     1     -72.073 -57.812 -27.091  0.00  0.00    +0.000 C 
ATOM      3  C   UNL     1     -72.689 -58.637 -28.304  0.00  0.00    +0.000 C 
ATOM      4  C   UNL     1     -73.521 -58.790 -25.455  0.00  0.00    +0.000 C 
ATOM      5  C   UNL     1     -73.194 -57.535 -26.154  0.00  0.00    +0.000 C 
ATOM      6  C   UNL     1     -71.349 -58.752 -26.208  0.00  0.00    +0.000 C 
ATOM      7  C   UNL     1     -72.563 -58.164 -29.756  0.00  0.00    +0.000 C 
ATOM      8  C   UNL     1     -72.083 -59.332 -25.065  0.00  0.00    +0.000 C 
ATOM      9  C   UNL     1     -71.299 -56.714 -27.609  0.00  0.00    +0.000 C 
ATOM     10  C   UNL     1     -73.733 -59.547 -27.861  0.00  0.00    +0.000 C 
ATOM     11  C   UNL     1     -74.235 -59.622 -26.413  0.00  0.00    +0.000 C 
ATOM     12  C   UNL     1     -71.308 -57.180 -30.072  0.00  0.00    +0.000 C 
ATOM     13  C   UNL     1     -70.879 -56.363 -29.001  0.00  0.00    +0.000 C 
ATOM     14  C   UNL     1     -73.851 -57.371 -30.149  0.00  0.00    +0.000 C 
ATOM     15  C   UNL     1     -72.367 -59.346 -30.640  0.00  0.00    +0.000 C 
ATOM     16  C   UNL     1     -70.403 -57.568 -31.131  0.00  0.00    +0.000 A 
ATOM     17  C   UNL     1     -71.591 -59.658 -31.499  0.00  0.00    +0.000 C 
ATOM     18  C   UNL     1     -70.554 -58.759 -31.808  0.00  0.00    +0.000 A 
ATOM     19  C   UNL     1     -69.247 -56.980 -31.683  0.00  0.00    +0.000 A 
ATOM     20  C   UNL     1     -68.796 -57.858 -32.660  0.00  0.00    +0.000 A 
ENDROOT
BRANCH   8  21
ATOM     21  O   UNL     1     -71.640 -58.724 -23.865  0.00  0.00    +0.000 OA
ATOM     22  H   UNL     1     -71.988 -57.817 -23.882  0.00  0.00    +0.000 HD
ENDBRANCH   8  21
BRANCH   8  23
ATOM     23  C   UNL     1     -72.004 -60.793 -24.938  0.00  0.00    +0.000 C 
BRANCH  23  24
ATOM     24  O   UNL     1     -71.950 -62.121 -24.825  0.00  0.00    +0.000 OA
ATOM     25  H   UNL     1     -71.888 -62.542 -25.701  0.00  0.00    +0.000 HD
ENDBRANCH  23  24
ENDBRANCH   8  23
TORSDOF 3
ENDMDL
MODEL 8
REMARK VINA RESULT:      -5.2     16.743     18.370
REMARK  Name = 114778_Kahweol.pdbqt.pdb
REMARK  3 active torsions:
REMARK  status: ('A' for Active; 'I' for Inactive)
REMARK    1  A    between atoms: C_8  and  O_21
REMARK    2  A    between atoms: C_8  and  C_23
REMARK    3  A    between atoms: C_23  and  O_24
REMARK                            x       y       z     vdW  Elec       q    Type
REMARK                         _______ _______ _______ _____ _____    ______ ____
ROOT
ATOM      1  O   UNL     1     -51.969 -57.067 -71.300  0.00  0.00    +0.000 OA
ATOM      2  C   UNL     1     -54.886 -58.432 -65.929  0.00  0.00    +0.000 C 
ATOM      3  C   UNL     1     -55.416 -58.582 -67.422  0.00  0.00    +0.000 C 
ATOM      4  C   UNL     1     -56.493 -59.952 -65.015  0.00  0.00    +0.000 C 
ATOM      5  C   UNL     1     -56.077 -58.540 -65.044  0.00  0.00    +0.000 C 
ATOM      6  C   UNL     1     -54.264 -59.712 -65.524  0.00  0.00    +0.000 C 
ATOM      7  C   UNL     1     -55.154 -57.512 -68.488  0.00  0.00    +0.000 C 
ATOM      8  C   UNL     1     -55.109 -60.699 -64.821  0.00  0.00    +0.000 C 
ATOM      9  C   UNL     1     -54.043 -57.268 -65.839  0.00  0.00    +0.000 C 
ATOM     10  C   UNL     1     -56.516 -59.528 -67.510  0.00  0.00    +0.000 C 
ATOM     11  C   UNL     1     -57.143 -60.217 -66.291  0.00  0.00    +0.000 C 
ATOM     12  C   UNL     1     -53.852 -56.571 -68.239  0.00  0.00    +0.000 C 
ATOM     13  C   UNL     1     -53.497 -56.353 -66.889  0.00  0.00    +0.000 C 
ATOM     14  C   UNL     1     -56.384 -56.550 -68.560  0.00  0.00    +0.000 C 
ATOM     15  C   UNL     1     -54.912 -58.178 -69.798  0.00  0.00    +0.000 C 
ATOM     16  C   UNL     1     -52.870 -56.494 -69.297  0.00  0.00    +0.000 A 
ATOM     17  C   UNL     1     -54.073 -58.116 -70.652  0.00  0.00    +0.000 C 
ATOM     18  C   UNL     1     -52.991 -57.240 -70.450  0.00  0.00    +0.000 A 
ATOM     19  C   UNL     1     -51.656 -55.793 -69.444  0.00  0.00    +0.000 A 
ATOM     20  C   UNL     1     -51.145 -56.160 -70.682  0.00  0.00    +0.000 A 
ENDROOT
BRANCH   8  21
ATOM     21  O   UNL     1     -54.755 -60.726 -63.450  0.00  0.00    +0.000 OA
ATOM     22  H   UNL     1     -54.034 -60.082 -63.348  0.00  0.00    +0.000 HD
ENDBRANCH   8  21
BRANCH   8  23
ATOM     23  C   UNL     1     -55.077 -62.062 -65.367  0.00  0.00    +0.000 C 
BRANCH  23  24
ATOM     24  O   UNL     1     -55.065 -63.296 -65.871  0.00  0.00    +0.000 OA
ATOM     25  H   UNL     1     -55.475 -63.316 -66.754  0.00  0.00    +0.000 HD
ENDBRANCH  23  24
ENDBRANCH   8  23
TORSDOF 3
ENDMDL
MODEL 9
REMARK VINA RESULT:      -5.1     27.115     31.082
REMARK  Name = 114778_Kahweol.pdbqt.pdb
REMARK  3 active torsions:
REMARK  status: ('A' for Active; 'I' for Inactive)
REMARK    1  A    between atoms: C_8  and  O_21
REMARK    2  A    between atoms: C_8  and  C_23
REMARK    3  A    between atoms: C_23  and  O_24
REMARK                            x       y       z     vdW  Elec       q    Type
REMARK                         _______ _______ _______ _____ _____    ______ ____
ROOT
ATOM      1  O   UNL     1     -72.499 -59.921 -25.251  0.00  0.00    +0.000 OA
ATOM      2  C   UNL     1     -71.961 -57.576 -31.033  0.00  0.00    +0.000 C 
ATOM      3  C   UNL     1     -71.483 -56.950 -29.651  0.00  0.00    +0.000 C 
ATOM      4  C   UNL     1     -70.519 -56.202 -32.360  0.00  0.00    +0.000 C 
ATOM      5  C   UNL     1     -71.928 -56.473 -32.031  0.00  0.00    +0.000 C 
ATOM      6  C   UNL     1     -70.840 -58.351 -31.608  0.00  0.00    +0.000 C 
ATOM      7  C   UNL     1     -72.344 -57.022 -28.385  0.00  0.00    +0.000 C 
ATOM      8  C   UNL     1     -69.941 -57.665 -32.558  0.00  0.00    +0.000 C 
ATOM      9  C   UNL     1     -73.187 -58.303 -30.825  0.00  0.00    +0.000 C 
ATOM     10  C   UNL     1     -70.449 -55.946 -29.844  0.00  0.00    +0.000 C 
ATOM     11  C   UNL     1     -69.960 -55.486 -31.223  0.00  0.00    +0.000 C 
ATOM     12  C   UNL     1     -73.420 -58.239 -28.331  0.00  0.00    +0.000 C 
ATOM     13  C   UNL     1     -73.923 -58.674 -29.578  0.00  0.00    +0.000 C 
ATOM     14  C   UNL     1     -73.168 -55.701 -28.252  0.00  0.00    +0.000 C 
ATOM     15  C   UNL     1     -71.460 -57.228 -27.204  0.00  0.00    +0.000 C 
ATOM     16  C   UNL     1     -73.373 -59.124 -27.190  0.00  0.00    +0.000 A 
ATOM     17  C   UNL     1     -71.425 -57.988 -26.278  0.00  0.00    +0.000 C 
ATOM     18  C   UNL     1     -72.410 -58.990 -26.211  0.00  0.00    +0.000 A 
ATOM     19  C   UNL     1     -74.130 -60.248 -26.801  0.00  0.00    +0.000 A 
ATOM     20  C   UNL     1     -73.574 -60.696 -25.610  0.00  0.00    +0.000 A 
ENDROOT
BRANCH   8  21
ATOM     21  O   UNL     1     -70.209 -58.124 -33.871  0.00  0.00    +0.000 OA
ATOM     22  H   UNL     1     -69.857 -57.442 -34.468  0.00  0.00    +0.000 HD
ENDBRANCH   8  21
BRANCH   8  23
ATOM     23  C   UNL     1     -68.506 -57.790 -32.273  0.00  0.00    +0.000 C 
BRANCH  23  24
ATOM     24  O   UNL     1     -67.206 -57.916 -32.002  0.00  0.00    +0.000 OA
ATOM     25  H   UNL     1     -66.982 -57.477 -31.163  0.00  0.00    +0.000 HD
ENDBRANCH  23  24
ENDBRANCH   8  23
TORSDOF 3
ENDMDL
