REMARK  Name = 1174_Uracil.pdbqt.pdb
REMARK  0 active torsions:
REMARK  status: ('A' for Active; 'I' for Inactive)
REMARK                            x       y       z     vdW  Elec       q    Type
REMARK                         _______ _______ _______ _____ _____    ______ ____
ROOT
ATOM      1  O   UNL     1       2.329   0.949   0.000  0.00  0.00    +0.000 OA
ATOM      2  O   UNL     1      -2.305   0.967   0.001  0.00  0.00    +0.000 OA
ATOM      3  N   UNL     1       0.019   1.028   0.000  0.00  0.00    +0.000 N 
ATOM      4  N   UNL     1       1.138  -1.031   0.000  0.00  0.00    +0.000 N 
ATOM      5  C   UNL     1       1.254   0.363   0.000  0.00  0.00    +0.000 A 
ATOM      6  C   UNL     1      -1.224   0.398   0.000  0.00  0.00    +0.000 A 
ATOM      7  C   UNL     1      -0.068  -1.623   0.000  0.00  0.00    +0.000 A 
ATOM      8  C   UNL     1      -1.106  -1.037   0.000  0.00  0.00    +0.000 A 
ATOM      9  H   UNL     1       0.033   2.035   0.000  0.00  0.00    +0.000 HD
ATOM     10  H   UNL     1       1.986  -1.584   0.000  0.00  0.00    +0.000 HD
ENDROOT
TORSDOF 0
