MODEL 1
REMARK VINA RESULT:      -3.7      0.000      0.000
REMARK  Name = 1174_Uracil.pdbqt.pdb
REMARK  0 active torsions:
REMARK  status: ('A' for Active; 'I' for Inactive)
REMARK                            x       y       z     vdW  Elec       q    Type
REMARK                         _______ _______ _______ _____ _____    ______ ____
ROOT
ATOM      1  O   UNL     1     -65.152 -46.834 -59.953  0.00  0.00    +0.000 OA
ATOM      2  O   UNL     1     -61.049 -46.189 -57.897  0.00  0.00    +0.000 OA
ATOM      3  N   UNL     1     -63.139 -46.505 -58.866  0.00  0.00    +0.000 N 
ATOM      4  N   UNL     1     -63.194 -46.883 -61.178  0.00  0.00    +0.000 N 
ATOM      5  C   UNL     1     -63.931 -46.749 -59.997  0.00  0.00    +0.000 A 
ATOM      6  C   UNL     1     -61.749 -46.401 -58.876  0.00  0.00    +0.000 A 
ATOM      7  C   UNL     1     -61.854 -46.780 -61.170  0.00  0.00    +0.000 A 
ATOM      8  C   UNL     1     -61.200 -46.573 -60.196  0.00  0.00    +0.000 A 
ATOM      9  H   UNL     1     -63.610 -46.398 -57.982  0.00  0.00    +0.000 HD
ATOM     10  H   UNL     1     -63.694 -47.061 -62.040  0.00  0.00    +0.000 HD
ENDROOT
TORSDOF 0
ENDMDL
MODEL 2
REMARK VINA RESULT:      -3.3      1.177      2.808
REMARK  Name = 1174_Uracil.pdbqt.pdb
REMARK  0 active torsions:
REMARK  status: ('A' for Active; 'I' for Inactive)
REMARK                            x       y       z     vdW  Elec       q    Type
REMARK                         _______ _______ _______ _____ _____    ______ ____
ROOT
ATOM      1  O   UNL     1     -62.274 -45.458 -57.150  0.00  0.00    +0.000 OA
ATOM      2  O   UNL     1     -64.470 -47.431 -60.722  0.00  0.00    +0.000 OA
ATOM      3  N   UNL     1     -63.430 -46.435 -58.896  0.00  0.00    +0.000 N 
ATOM      4  N   UNL     1     -61.110 -46.128 -59.030  0.00  0.00    +0.000 N 
ATOM      5  C   UNL     1     -62.270 -45.964 -58.264  0.00  0.00    +0.000 A 
ATOM      6  C   UNL     1     -63.466 -47.016 -60.162  0.00  0.00    +0.000 A 
ATOM      7  C   UNL     1     -61.162 -46.690 -60.249  0.00  0.00    +0.000 A 
ATOM      8  C   UNL     1     -62.161 -47.084 -60.767  0.00  0.00    +0.000 A 
ATOM      9  H   UNL     1     -64.300 -46.346 -58.397  0.00  0.00    +0.000 HD
ATOM     10  H   UNL     1     -60.230 -45.812 -58.643  0.00  0.00    +0.000 HD
ENDROOT
TORSDOF 0
ENDMDL
MODEL 3
REMARK VINA RESULT:      -3.2     42.663     43.469
REMARK  Name = 1174_Uracil.pdbqt.pdb
REMARK  0 active torsions:
REMARK  status: ('A' for Active; 'I' for Inactive)
REMARK                            x       y       z     vdW  Elec       q    Type
REMARK                         _______ _______ _______ _____ _____    ______ ____
ROOT
ATOM      1  O   UNL     1     -67.311 -63.253 -21.247  0.00  0.00    +0.000 OA
ATOM      2  O   UNL     1     -71.137 -62.283 -18.820  0.00  0.00    +0.000 OA
ATOM      3  N   UNL     1     -69.186 -62.714 -20.008  0.00  0.00    +0.000 N 
ATOM      4  N   UNL     1     -69.207 -64.556 -21.457  0.00  0.00    +0.000 N 
ATOM      5  C   UNL     1     -68.470 -63.489 -20.932  0.00  0.00    +0.000 A 
ATOM      6  C   UNL     1     -70.504 -62.950 -19.624  0.00  0.00    +0.000 A 
ATOM      7  C   UNL     1     -70.477 -64.770 -21.076  0.00  0.00    +0.000 A 
ATOM      8  C   UNL     1     -71.067 -64.098 -20.288  0.00  0.00    +0.000 A 
ATOM      9  H   UNL     1     -68.711 -61.929 -19.593  0.00  0.00    +0.000 HD
ATOM     10  H   UNL     1     -68.759 -65.164 -22.132  0.00  0.00    +0.000 HD
ENDROOT
TORSDOF 0
ENDMDL
MODEL 4
REMARK VINA RESULT:      -3.2     33.572     34.539
REMARK  Name = 1174_Uracil.pdbqt.pdb
REMARK  0 active torsions:
REMARK  status: ('A' for Active; 'I' for Inactive)
REMARK                            x       y       z     vdW  Elec       q    Type
REMARK                         _______ _______ _______ _____ _____    ______ ____
ROOT
ATOM      1  O   UNL     1     -52.345 -60.232 -87.741  0.00  0.00    +0.000 OA
ATOM      2  O   UNL     1     -52.588 -58.633 -92.084  0.00  0.00    +0.000 OA
ATOM      3  N   UNL     1     -52.409 -59.396 -89.895  0.00  0.00    +0.000 N 
ATOM      4  N   UNL     1     -54.028 -60.924 -89.165  0.00  0.00    +0.000 N 
ATOM      5  C   UNL     1     -52.883 -60.189 -88.840  0.00  0.00    +0.000 A 
ATOM      6  C   UNL     1     -52.992 -59.321 -91.158  0.00  0.00    +0.000 A 
ATOM      7  C   UNL     1     -54.578 -60.840 -90.387  0.00  0.00    +0.000 A 
ATOM      8  C   UNL     1     -54.157 -60.159 -91.270  0.00  0.00    +0.000 A 
ATOM      9  H   UNL     1     -51.585 -58.841 -89.726  0.00  0.00    +0.000 HD
ATOM     10  H   UNL     1     -54.433 -61.522 -88.455  0.00  0.00    +0.000 HD
ENDROOT
TORSDOF 0
ENDMDL
MODEL 5
REMARK VINA RESULT:      -3.1     23.598     24.198
REMARK  Name = 1174_Uracil.pdbqt.pdb
REMARK  0 active torsions:
REMARK  status: ('A' for Active; 'I' for Inactive)
REMARK                            x       y       z     vdW  Elec       q    Type
REMARK                         _______ _______ _______ _____ _____    ______ ____
ROOT
ATOM      1  O   UNL     1     -59.362 -65.622 -73.519  0.00  0.00    +0.000 OA
ATOM      2  O   UNL     1     -55.075 -64.597 -72.085  0.00  0.00    +0.000 OA
ATOM      3  N   UNL     1     -57.246 -65.047 -72.786  0.00  0.00    +0.000 N 
ATOM      4  N   UNL     1     -57.663 -67.182 -73.657  0.00  0.00    +0.000 N 
ATOM      5  C   UNL     1     -58.190 -65.926 -73.337  0.00  0.00    +0.000 A 
ATOM      6  C   UNL     1     -55.906 -65.355 -72.563  0.00  0.00    +0.000 A 
ATOM      7  C   UNL     1     -56.368 -67.464 -73.436  0.00  0.00    +0.000 A 
ATOM      8  C   UNL     1     -55.583 -66.700 -72.966  0.00  0.00    +0.000 A 
ATOM      9  H   UNL     1     -57.562 -64.124 -72.533  0.00  0.00    +0.000 HD
ATOM     10  H   UNL     1     -58.282 -67.875 -74.059  0.00  0.00    +0.000 HD
ENDROOT
TORSDOF 0
ENDMDL
MODEL 6
REMARK VINA RESULT:      -3.0     29.830     30.715
REMARK  Name = 1174_Uracil.pdbqt.pdb
REMARK  0 active torsions:
REMARK  status: ('A' for Active; 'I' for Inactive)
REMARK                            x       y       z     vdW  Elec       q    Type
REMARK                         _______ _______ _______ _____ _____    ______ ____
ROOT
ATOM      1  O   UNL     1     -59.915 -66.136 -82.251  0.00  0.00    +0.000 OA
ATOM      2  O   UNL     1     -58.651 -70.558 -81.679  0.00  0.00    +0.000 OA
ATOM      3  N   UNL     1     -59.324 -68.359 -82.021  0.00  0.00    +0.000 N 
ATOM      4  N   UNL     1     -58.465 -66.743 -80.557  0.00  0.00    +0.000 N 
ATOM      5  C   UNL     1     -59.287 -67.004 -81.658  0.00  0.00    +0.000 A 
ATOM      6  C   UNL     1     -58.625 -69.375 -81.373  0.00  0.00    +0.000 A 
ATOM      7  C   UNL     1     -57.798 -67.734 -79.943  0.00  0.00    +0.000 A 
ATOM      8  C   UNL     1     -57.844 -68.880 -80.269  0.00  0.00    +0.000 A 
ATOM      9  H   UNL     1     -59.899 -68.614 -82.807  0.00  0.00    +0.000 HD
ATOM     10  H   UNL     1     -58.385 -65.787 -80.233  0.00  0.00    +0.000 HD
ENDROOT
TORSDOF 0
ENDMDL
MODEL 7
REMARK VINA RESULT:      -3.0     40.540     41.327
REMARK  Name = 1174_Uracil.pdbqt.pdb
REMARK  0 active torsions:
REMARK  status: ('A' for Active; 'I' for Inactive)
REMARK                            x       y       z     vdW  Elec       q    Type
REMARK                         _______ _______ _______ _____ _____    ______ ____
ROOT
ATOM      1  O   UNL     1     -44.276 -60.514 -94.268  0.00  0.00    +0.000 OA
ATOM      2  O   UNL     1     -44.364 -63.246 -90.526  0.00  0.00    +0.000 OA
ATOM      3  N   UNL     1     -44.355 -61.827 -92.368  0.00  0.00    +0.000 N 
ATOM      4  N   UNL     1     -43.307 -62.611 -94.311  0.00  0.00    +0.000 N 
ATOM      5  C   UNL     1     -44.002 -61.563 -93.699  0.00  0.00    +0.000 A 
ATOM      6  C   UNL     1     -44.062 -63.006 -91.685  0.00  0.00    +0.000 A 
ATOM      7  C   UNL     1     -43.032 -63.742 -93.639  0.00  0.00    +0.000 A 
ATOM      8  C   UNL     1     -43.343 -63.945 -92.507  0.00  0.00    +0.000 A 
ATOM      9  H   UNL     1     -44.858 -61.110 -91.869  0.00  0.00    +0.000 HD
ATOM     10  H   UNL     1     -43.016 -62.498 -95.274  0.00  0.00    +0.000 HD
ENDROOT
TORSDOF 0
ENDMDL
MODEL 8
REMARK VINA RESULT:      -2.9     27.982     28.818
REMARK  Name = 1174_Uracil.pdbqt.pdb
REMARK  0 active torsions:
REMARK  status: ('A' for Active; 'I' for Inactive)
REMARK                            x       y       z     vdW  Elec       q    Type
REMARK                         _______ _______ _______ _____ _____    ______ ____
ROOT
ATOM      1  O   UNL     1     -67.236 -61.123 -34.027  0.00  0.00    +0.000 OA
ATOM      2  O   UNL     1     -67.546 -56.983 -36.087  0.00  0.00    +0.000 OA
ATOM      3  N   UNL     1     -67.375 -59.089 -35.116  0.00  0.00    +0.000 N 
ATOM      4  N   UNL     1     -67.766 -59.232 -32.810  0.00  0.00    +0.000 N 
ATOM      5  C   UNL     1     -67.442 -59.917 -33.985  0.00  0.00    +0.000 A 
ATOM      6  C   UNL     1     -67.603 -57.714 -35.110  0.00  0.00    +0.000 A 
ATOM      7  C   UNL     1     -67.982 -57.906 -32.821  0.00  0.00    +0.000 A 
ATOM      8  C   UNL     1     -67.920 -57.221 -33.794  0.00  0.00    +0.000 A 
ATOM      9  H   UNL     1     -67.146 -59.521 -35.996  0.00  0.00    +0.000 HD
ATOM     10  H   UNL     1     -67.834 -59.760 -31.949  0.00  0.00    +0.000 HD
ENDROOT
TORSDOF 0
ENDMDL
MODEL 9
REMARK VINA RESULT:      -2.8     18.168     19.143
REMARK  Name = 1174_Uracil.pdbqt.pdb
REMARK  0 active torsions:
REMARK  status: ('A' for Active; 'I' for Inactive)
REMARK                            x       y       z     vdW  Elec       q    Type
REMARK                         _______ _______ _______ _____ _____    ______ ____
ROOT
ATOM      1  O   UNL     1     -65.277 -60.647 -69.850  0.00  0.00    +0.000 OA
ATOM      2  O   UNL     1     -65.163 -61.500 -74.403  0.00  0.00    +0.000 OA
ATOM      3  N   UNL     1     -65.169 -61.119 -72.110  0.00  0.00    +0.000 N 
ATOM      4  N   UNL     1     -66.705 -59.547 -71.296  0.00  0.00    +0.000 N 
ATOM      5  C   UNL     1     -65.684 -60.453 -70.988  0.00  0.00    +0.000 A 
ATOM      6  C   UNL     1     -65.605 -60.926 -73.420  0.00  0.00    +0.000 A 
ATOM      7  C   UNL     1     -67.113 -59.372 -72.564  0.00  0.00    +0.000 A 
ATOM      8  C   UNL     1     -66.661 -59.950 -73.503  0.00  0.00    +0.000 A 
ATOM      9  H   UNL     1     -64.431 -61.786 -71.956  0.00  0.00    +0.000 HD
ATOM     10  H   UNL     1     -67.129 -59.025 -70.539  0.00  0.00    +0.000 HD
ENDROOT
TORSDOF 0
ENDMDL
