MODEL 1
REMARK VINA RESULT:      -4.8      0.000      0.000
REMARK  Name = 122180587_TripolinolateA.pdbqt.pdb
REMARK  9 active torsions:
REMARK  status: ('A' for Active; 'I' for Inactive)
REMARK    1  A    between atoms: C_1  and  O_16
REMARK    2  A    between atoms: C_2  and  O_7
REMARK    3  A    between atoms: C_3  and  C_9
REMARK    4  A    between atoms: C_10  and  C_11
REMARK    5  A    between atoms: C_11  and  O_12
REMARK    6  A    between atoms: O_12  and  C_14
REMARK    7  A    between atoms: O_16  and  C_18
REMARK    8  A    between atoms: C_18  and  C_19
REMARK    9  A    between atoms: C_19  and  C_21
REMARK                            x       y       z     vdW  Elec       q    Type
REMARK                         _______ _______ _______ _____ _____    ______ ____
ROOT
ATOM      1  C   UNL     1     -49.123 -61.490 -78.373  0.00  0.00    +0.000 A 
ATOM      2  C   UNL     1     -50.211 -60.643 -78.140  0.00  0.00    +0.000 A 
ATOM      3  C   UNL     1     -50.967 -62.180 -76.423  0.00  0.00    +0.000 A 
ATOM      4  C   UNL     1     -48.966 -62.686 -77.669  0.00  0.00    +0.000 A 
ATOM      5  C   UNL     1     -51.129 -61.001 -77.150  0.00  0.00    +0.000 A 
ATOM      6  C   UNL     1     -49.889 -63.024 -76.684  0.00  0.00    +0.000 A 
ENDROOT
BRANCH   2   7
ATOM      7  O   UNL     1     -50.311 -59.518 -78.920  0.00  0.00    +0.000 OA
ATOM      8  C   UNL     1     -51.515 -58.811 -78.813  0.00  0.00    +0.000 C 
ENDBRANCH   2   7
BRANCH   3   9
ATOM      9  C   UNL     1     -51.912 -62.526 -75.412  0.00  0.00    +0.000 C 
ATOM     10  C   UNL     1     -52.709 -62.819 -74.563  0.00  0.00    +0.000 C 
BRANCH  10  11
ATOM     11  C   UNL     1     -53.729 -63.190 -73.481  0.00  0.00    +0.000 C 
BRANCH  11  12
ATOM     12  O   UNL     1     -54.613 -63.513 -72.541  0.00  0.00    +0.000 OA
BRANCH  12  14
ATOM     13  O   UNL     1     -56.359 -65.069 -72.565  0.00  0.00    +0.000 OA
ATOM     14  C   UNL     1     -55.202 -64.715 -72.699  0.00  0.00    +0.000 C 
ATOM     15  C   UNL     1     -54.273 -65.807 -73.110  0.00  0.00    +0.000 C 
ENDBRANCH  12  14
ENDBRANCH  11  12
ENDBRANCH  10  11
ENDBRANCH   3   9
BRANCH   1  16
ATOM     16  O   UNL     1     -48.211 -61.189 -79.394  0.00  0.00    +0.000 OA
BRANCH  16  18
ATOM     17  O   UNL     1     -49.452 -61.594 -81.318  0.00  0.00    +0.000 OA
ATOM     18  C   UNL     1     -48.494 -61.830 -80.594  0.00  0.00    +0.000 C 
BRANCH  18  19
ATOM     19  C   UNL     1     -47.475 -62.870 -80.884  0.00  0.00    +0.000 C 
ATOM     20  C   UNL     1     -46.116 -62.928 -80.199  0.00  0.00    +0.000 C 
BRANCH  19  21
ATOM     21  C   UNL     1     -47.770 -63.873 -81.845  0.00  0.00    +0.000 C 
ATOM     22  C   UNL     1     -48.096 -64.963 -82.884  0.00  0.00    +0.000 C 
ENDBRANCH  19  21
ENDBRANCH  18  19
ENDBRANCH  16  18
ENDBRANCH   1  16
TORSDOF 9
ENDMDL
MODEL 2
REMARK VINA RESULT:      -4.5     46.805     52.338
REMARK  Name = 122180587_TripolinolateA.pdbqt.pdb
REMARK  9 active torsions:
REMARK  status: ('A' for Active; 'I' for Inactive)
REMARK    1  A    between atoms: C_1  and  O_16
REMARK    2  A    between atoms: C_2  and  O_7
REMARK    3  A    between atoms: C_3  and  C_9
REMARK    4  A    between atoms: C_10  and  C_11
REMARK    5  A    between atoms: C_11  and  O_12
REMARK    6  A    between atoms: O_12  and  C_14
REMARK    7  A    between atoms: O_16  and  C_18
REMARK    8  A    between atoms: C_18  and  C_19
REMARK    9  A    between atoms: C_19  and  C_21
REMARK                            x       y       z     vdW  Elec       q    Type
REMARK                         _______ _______ _______ _____ _____    ______ ____
ROOT
ATOM      1  C   UNL     1     -70.157 -56.278 -31.245  0.00  0.00    +0.000 A 
ATOM      2  C   UNL     1     -70.266 -55.291 -30.259  0.00  0.00    +0.000 A 
ATOM      3  C   UNL     1     -71.368 -56.916 -28.835  0.00  0.00    +0.000 A 
ATOM      4  C   UNL     1     -70.672 -57.562 -31.051  0.00  0.00    +0.000 A 
ATOM      5  C   UNL     1     -70.874 -55.630 -29.047  0.00  0.00    +0.000 A 
ATOM      6  C   UNL     1     -71.271 -57.881 -29.836  0.00  0.00    +0.000 A 
ENDROOT
BRANCH   2   7
ATOM      7  O   UNL     1     -69.780 -54.044 -30.562  0.00  0.00    +0.000 OA
ATOM      8  C   UNL     1     -70.712 -53.000 -30.504  0.00  0.00    +0.000 C 
ENDBRANCH   2   7
BRANCH   3   9
ATOM      9  C   UNL     1     -71.981 -57.244 -27.589  0.00  0.00    +0.000 C 
ATOM     10  C   UNL     1     -72.499 -57.521 -26.542  0.00  0.00    +0.000 C 
BRANCH  10  11
ATOM     11  C   UNL     1     -73.163 -57.872 -25.207  0.00  0.00    +0.000 C 
BRANCH  11  12
ATOM     12  O   UNL     1     -73.741 -58.176 -24.047  0.00  0.00    +0.000 OA
BRANCH  12  14
ATOM     13  O   UNL     1     -71.991 -58.811 -22.631  0.00  0.00    +0.000 OA
ATOM     14  C   UNL     1     -72.931 -58.116 -22.971  0.00  0.00    +0.000 C 
ATOM     15  C   UNL     1     -73.239 -57.002 -22.029  0.00  0.00    +0.000 C 
ENDBRANCH  12  14
ENDBRANCH  11  12
ENDBRANCH  10  11
ENDBRANCH   3   9
BRANCH   1  16
ATOM     16  O   UNL     1     -69.600 -55.961 -32.491  0.00  0.00    +0.000 OA
BRANCH  16  18
ATOM     17  O   UNL     1     -71.543 -55.203 -33.522  0.00  0.00    +0.000 OA
ATOM     18  C   UNL     1     -70.537 -55.903 -33.515  0.00  0.00    +0.000 C 
BRANCH  18  19
ATOM     19  C   UNL     1     -70.167 -56.826 -34.616  0.00  0.00    +0.000 C 
ATOM     20  C   UNL     1     -71.178 -57.420 -35.589  0.00  0.00    +0.000 C 
BRANCH  19  21
ATOM     21  C   UNL     1     -68.803 -57.180 -34.790  0.00  0.00    +0.000 C 
ATOM     22  C   UNL     1     -67.324 -57.564 -34.986  0.00  0.00    +0.000 C 
ENDBRANCH  19  21
ENDBRANCH  18  19
ENDBRANCH  16  18
ENDBRANCH   1  16
TORSDOF 9
ENDMDL
MODEL 3
REMARK VINA RESULT:      -4.5      1.128      2.249
REMARK  Name = 122180587_TripolinolateA.pdbqt.pdb
REMARK  9 active torsions:
REMARK  status: ('A' for Active; 'I' for Inactive)
REMARK    1  A    between atoms: C_1  and  O_16
REMARK    2  A    between atoms: C_2  and  O_7
REMARK    3  A    between atoms: C_3  and  C_9
REMARK    4  A    between atoms: C_10  and  C_11
REMARK    5  A    between atoms: C_11  and  O_12
REMARK    6  A    between atoms: O_12  and  C_14
REMARK    7  A    between atoms: O_16  and  C_18
REMARK    8  A    between atoms: C_18  and  C_19
REMARK    9  A    between atoms: C_19  and  C_21
REMARK                            x       y       z     vdW  Elec       q    Type
REMARK                         _______ _______ _______ _____ _____    ______ ____
ROOT
ATOM      1  C   UNL     1     -49.383 -61.356 -78.237  0.00  0.00    +0.000 A 
ATOM      2  C   UNL     1     -49.168 -62.583 -77.599  0.00  0.00    +0.000 A 
ATOM      3  C   UNL     1     -51.206 -62.217 -76.335  0.00  0.00    +0.000 A 
ATOM      4  C   UNL     1     -50.474 -60.547 -77.912  0.00  0.00    +0.000 A 
ATOM      5  C   UNL     1     -50.099 -63.006 -76.647  0.00  0.00    +0.000 A 
ATOM      6  C   UNL     1     -51.392 -60.988 -76.964  0.00  0.00    +0.000 A 
ENDROOT
BRANCH   2   7
ATOM      7  O   UNL     1     -48.039 -63.282 -77.944  0.00  0.00    +0.000 OA
ATOM      8  C   UNL     1     -47.421 -63.987 -76.904  0.00  0.00    +0.000 C 
ENDBRANCH   2   7
BRANCH   3   9
ATOM      9  C   UNL     1     -52.147 -62.668 -75.363  0.00  0.00    +0.000 C 
ATOM     10  C   UNL     1     -52.940 -63.049 -74.546  0.00  0.00    +0.000 C 
BRANCH  10  11
ATOM     11  C   UNL     1     -53.955 -63.536 -73.506  0.00  0.00    +0.000 C 
BRANCH  11  12
ATOM     12  O   UNL     1     -54.838 -63.960 -72.605  0.00  0.00    +0.000 OA
BRANCH  12  14
ATOM     13  O   UNL     1     -54.488 -66.258 -72.859  0.00  0.00    +0.000 OA
ATOM     14  C   UNL     1     -55.170 -65.263 -72.699  0.00  0.00    +0.000 C 
ATOM     15  C   UNL     1     -56.633 -65.535 -72.588  0.00  0.00    +0.000 C 
ENDBRANCH  12  14
ENDBRANCH  11  12
ENDBRANCH  10  11
ENDBRANCH   3   9
BRANCH   1  16
ATOM     16  O   UNL     1     -48.444 -60.876 -79.160  0.00  0.00    +0.000 OA
BRANCH  16  18
ATOM     17  O   UNL     1     -49.849 -60.747 -81.008  0.00  0.00    +0.000 OA
ATOM     18  C   UNL     1     -48.803 -61.106 -80.482  0.00  0.00    +0.000 C 
BRANCH  18  19
ATOM     19  C   UNL     1     -47.744 -61.870 -81.187  0.00  0.00    +0.000 C 
ATOM     20  C   UNL     1     -46.311 -61.375 -81.336  0.00  0.00    +0.000 C 
BRANCH  19  21
ATOM     21  C   UNL     1     -48.064 -63.132 -81.752  0.00  0.00    +0.000 C 
ATOM     22  C   UNL     1     -48.405 -64.502 -82.368  0.00  0.00    +0.000 C 
ENDBRANCH  19  21
ENDBRANCH  18  19
ENDBRANCH  16  18
ENDBRANCH   1  16
TORSDOF 9
ENDMDL
MODEL 4
REMARK VINA RESULT:      -4.5     59.968     62.663
REMARK  Name = 122180587_TripolinolateA.pdbqt.pdb
REMARK  9 active torsions:
REMARK  status: ('A' for Active; 'I' for Inactive)
REMARK    1  A    between atoms: C_1  and  O_16
REMARK    2  A    between atoms: C_2  and  O_7
REMARK    3  A    between atoms: C_3  and  C_9
REMARK    4  A    between atoms: C_10  and  C_11
REMARK    5  A    between atoms: C_11  and  O_12
REMARK    6  A    between atoms: O_12  and  C_14
REMARK    7  A    between atoms: O_16  and  C_18
REMARK    8  A    between atoms: C_18  and  C_19
REMARK    9  A    between atoms: C_19  and  C_21
REMARK                            x       y       z     vdW  Elec       q    Type
REMARK                         _______ _______ _______ _____ _____    ______ ____
ROOT
ATOM      1  C   UNL     1     -64.005 -54.909 -16.873  0.00  0.00    +0.000 A 
ATOM      2  C   UNL     1     -63.676 -54.492 -18.167  0.00  0.00    +0.000 A 
ATOM      3  C   UNL     1     -65.716 -53.181 -18.202  0.00  0.00    +0.000 A 
ATOM      4  C   UNL     1     -65.187 -54.498 -16.253  0.00  0.00    +0.000 A 
ATOM      5  C   UNL     1     -64.546 -53.617 -18.822  0.00  0.00    +0.000 A 
ATOM      6  C   UNL     1     -66.039 -53.623 -16.920  0.00  0.00    +0.000 A 
ENDROOT
BRANCH   2   7
ATOM      7  O   UNL     1     -62.521 -54.992 -18.714  0.00  0.00    +0.000 OA
ATOM      8  C   UNL     1     -61.749 -54.078 -19.441  0.00  0.00    +0.000 C 
ENDBRANCH   2   7
BRANCH   3   9
ATOM      9  C   UNL     1     -66.589 -52.283 -18.884  0.00  0.00    +0.000 C 
ATOM     10  C   UNL     1     -67.325 -51.529 -19.460  0.00  0.00    +0.000 C 
BRANCH  10  11
ATOM     11  C   UNL     1     -68.264 -50.569 -20.198  0.00  0.00    +0.000 C 
BRANCH  11  12
ATOM     12  O   UNL     1     -69.080 -49.735 -20.838  0.00  0.00    +0.000 OA
BRANCH  12  14
ATOM     13  O   UNL     1     -71.217 -50.132 -21.703  0.00  0.00    +0.000 OA
ATOM     14  C   UNL     1     -70.382 -50.083 -20.818  0.00  0.00    +0.000 C 
ATOM     15  C   UNL     1     -70.894 -50.477 -19.473  0.00  0.00    +0.000 C 
ENDBRANCH  12  14
ENDBRANCH  11  12
ENDBRANCH  10  11
ENDBRANCH   3   9
BRANCH   1  16
ATOM     16  O   UNL     1     -63.183 -55.827 -16.205  0.00  0.00    +0.000 OA
BRANCH  16  18
ATOM     17  O   UNL     1     -62.104 -54.464 -14.659  0.00  0.00    +0.000 OA
ATOM     18  C   UNL     1     -62.824 -55.418 -14.926  0.00  0.00    +0.000 C 
BRANCH  18  19
ATOM     19  C   UNL     1     -63.424 -56.312 -13.904  0.00  0.00    +0.000 C 
ATOM     20  C   UNL     1     -63.443 -55.990 -12.416  0.00  0.00    +0.000 C 
BRANCH  19  21
ATOM     21  C   UNL     1     -64.021 -57.531 -14.320  0.00  0.00    +0.000 C 
ATOM     22  C   UNL     1     -64.670 -58.851 -14.777  0.00  0.00    +0.000 C 
ENDBRANCH  19  21
ENDBRANCH  18  19
ENDBRANCH  16  18
ENDBRANCH   1  16
TORSDOF 9
ENDMDL
MODEL 5
REMARK VINA RESULT:      -4.4     12.379     17.895
REMARK  Name = 122180587_TripolinolateA.pdbqt.pdb
REMARK  9 active torsions:
REMARK  status: ('A' for Active; 'I' for Inactive)
REMARK    1  A    between atoms: C_1  and  O_16
REMARK    2  A    between atoms: C_2  and  O_7
REMARK    3  A    between atoms: C_3  and  C_9
REMARK    4  A    between atoms: C_10  and  C_11
REMARK    5  A    between atoms: C_11  and  O_12
REMARK    6  A    between atoms: O_12  and  C_14
REMARK    7  A    between atoms: O_16  and  C_18
REMARK    8  A    between atoms: C_18  and  C_19
REMARK    9  A    between atoms: C_19  and  C_21
REMARK                            x       y       z     vdW  Elec       q    Type
REMARK                         _______ _______ _______ _____ _____    ______ ____
ROOT
ATOM      1  C   UNL     1     -65.684 -60.943 -70.722  0.00  0.00    +0.000 A 
ATOM      2  C   UNL     1     -64.644 -61.714 -71.254  0.00  0.00    +0.000 A 
ATOM      3  C   UNL     1     -65.260 -60.916 -73.461  0.00  0.00    +0.000 A 
ATOM      4  C   UNL     1     -66.527 -60.190 -71.542  0.00  0.00    +0.000 A 
ATOM      5  C   UNL     1     -64.440 -61.686 -72.636  0.00  0.00    +0.000 A 
ATOM      6  C   UNL     1     -66.304 -60.171 -72.916  0.00  0.00    +0.000 A 
ENDROOT
BRANCH   2   7
ATOM      7  O   UNL     1     -63.904 -62.465 -70.376  0.00  0.00    +0.000 OA
ATOM      8  C   UNL     1     -63.229 -63.558 -70.932  0.00  0.00    +0.000 C 
ENDBRANCH   2   7
BRANCH   3   9
ATOM      9  C   UNL     1     -65.032 -60.896 -74.868  0.00  0.00    +0.000 C 
ATOM     10  C   UNL     1     -64.840 -60.881 -76.054  0.00  0.00    +0.000 C 
BRANCH  10  11
ATOM     11  C   UNL     1     -64.592 -60.864 -77.566  0.00  0.00    +0.000 C 
BRANCH  11  12
ATOM     12  O   UNL     1     -64.376 -60.847 -78.879  0.00  0.00    +0.000 OA
BRANCH  12  14
ATOM     13  O   UNL     1     -63.091 -62.658 -79.612  0.00  0.00    +0.000 OA
ATOM     14  C   UNL     1     -63.268 -61.500 -79.284  0.00  0.00    +0.000 C 
ATOM     15  C   UNL     1     -62.041 -60.653 -79.343  0.00  0.00    +0.000 C 
ENDBRANCH  12  14
ENDBRANCH  11  12
ENDBRANCH  10  11
ENDBRANCH   3   9
BRANCH   1  16
ATOM     16  O   UNL     1     -65.951 -60.987 -69.347  0.00  0.00    +0.000 OA
BRANCH  16  18
ATOM     17  O   UNL     1     -67.295 -62.885 -69.366  0.00  0.00    +0.000 OA
ATOM     18  C   UNL     1     -67.083 -61.727 -69.029  0.00  0.00    +0.000 C 
BRANCH  18  19
ATOM     19  C   UNL     1     -68.030 -60.915 -68.226  0.00  0.00    +0.000 C 
ATOM     20  C   UNL     1     -69.325 -60.339 -68.785  0.00  0.00    +0.000 C 
BRANCH  19  21
ATOM     21  C   UNL     1     -67.732 -60.656 -66.862  0.00  0.00    +0.000 C 
ATOM     22  C   UNL     1     -67.409 -60.383 -65.381  0.00  0.00    +0.000 C 
ENDBRANCH  19  21
ENDBRANCH  18  19
ENDBRANCH  16  18
ENDBRANCH   1  16
TORSDOF 9
ENDMDL
MODEL 6
REMARK VINA RESULT:      -4.4     60.968     63.430
REMARK  Name = 122180587_TripolinolateA.pdbqt.pdb
REMARK  9 active torsions:
REMARK  status: ('A' for Active; 'I' for Inactive)
REMARK    1  A    between atoms: C_1  and  O_16
REMARK    2  A    between atoms: C_2  and  O_7
REMARK    3  A    between atoms: C_3  and  C_9
REMARK    4  A    between atoms: C_10  and  C_11
REMARK    5  A    between atoms: C_11  and  O_12
REMARK    6  A    between atoms: O_12  and  C_14
REMARK    7  A    between atoms: O_16  and  C_18
REMARK    8  A    between atoms: C_18  and  C_19
REMARK    9  A    between atoms: C_19  and  C_21
REMARK                            x       y       z     vdW  Elec       q    Type
REMARK                         _______ _______ _______ _____ _____    ______ ____
ROOT
ATOM      1  C   UNL     1     -64.608 -53.327 -16.752  0.00  0.00    +0.000 A 
ATOM      2  C   UNL     1     -63.447 -54.099 -16.869  0.00  0.00    +0.000 A 
ATOM      3  C   UNL     1     -64.615 -55.920 -15.772  0.00  0.00    +0.000 A 
ATOM      4  C   UNL     1     -65.753 -53.824 -16.126  0.00  0.00    +0.000 A 
ATOM      5  C   UNL     1     -63.467 -55.406 -16.375  0.00  0.00    +0.000 A 
ATOM      6  C   UNL     1     -65.756 -55.130 -15.644  0.00  0.00    +0.000 A 
ENDROOT
BRANCH   2   7
ATOM      7  O   UNL     1     -62.353 -53.506 -17.448  0.00  0.00    +0.000 OA
ATOM      8  C   UNL     1     -61.119 -54.107 -17.170  0.00  0.00    +0.000 C 
ENDBRANCH   2   7
BRANCH   3   9
ATOM      9  C   UNL     1     -64.619 -57.258 -15.278  0.00  0.00    +0.000 C 
ATOM     10  C   UNL     1     -64.621 -58.384 -14.861  0.00  0.00    +0.000 C 
BRANCH  10  11
ATOM     11  C   UNL     1     -64.619 -59.820 -14.327  0.00  0.00    +0.000 C 
BRANCH  11  12
ATOM     12  O   UNL     1     -64.619 -61.068 -13.865  0.00  0.00    +0.000 OA
BRANCH  12  14
ATOM     13  O   UNL     1     -66.432 -62.244 -12.973  0.00  0.00    +0.000 OA
ATOM     14  C   UNL     1     -65.602 -61.354 -12.989  0.00  0.00    +0.000 C 
ATOM     15  C   UNL     1     -65.690 -60.415 -11.833  0.00  0.00    +0.000 C 
ENDBRANCH  12  14
ENDBRANCH  11  12
ENDBRANCH  10  11
ENDBRANCH   3   9
BRANCH   1  16
ATOM     16  O   UNL     1     -64.608 -51.996 -17.189  0.00  0.00    +0.000 OA
BRANCH  16  18
ATOM     17  O   UNL     1     -64.793 -52.107 -19.504  0.00  0.00    +0.000 OA
ATOM     18  C   UNL     1     -65.251 -51.815 -18.407  0.00  0.00    +0.000 C 
BRANCH  18  19
ATOM     19  C   UNL     1     -66.585 -51.195 -18.207  0.00  0.00    +0.000 C 
ATOM     20  C   UNL     1     -66.961 -50.397 -16.966  0.00  0.00    +0.000 C 
BRANCH  19  21
ATOM     21  C   UNL     1     -67.570 -51.339 -19.219  0.00  0.00    +0.000 C 
ATOM     22  C   UNL     1     -68.634 -51.498 -20.321  0.00  0.00    +0.000 C 
ENDBRANCH  19  21
ENDBRANCH  18  19
ENDBRANCH  16  18
ENDBRANCH   1  16
TORSDOF 9
ENDMDL
MODEL 7
REMARK VINA RESULT:      -4.3     46.813     52.316
REMARK  Name = 122180587_TripolinolateA.pdbqt.pdb
REMARK  9 active torsions:
REMARK  status: ('A' for Active; 'I' for Inactive)
REMARK    1  A    between atoms: C_1  and  O_16
REMARK    2  A    between atoms: C_2  and  O_7
REMARK    3  A    between atoms: C_3  and  C_9
REMARK    4  A    between atoms: C_10  and  C_11
REMARK    5  A    between atoms: C_11  and  O_12
REMARK    6  A    between atoms: O_12  and  C_14
REMARK    7  A    between atoms: O_16  and  C_18
REMARK    8  A    between atoms: C_18  and  C_19
REMARK    9  A    between atoms: C_19  and  C_21
REMARK                            x       y       z     vdW  Elec       q    Type
REMARK                         _______ _______ _______ _____ _____    ______ ____
ROOT
ATOM      1  C   UNL     1     -70.167 -56.690 -31.203  0.00  0.00    +0.000 A 
ATOM      2  C   UNL     1     -70.840 -57.884 -30.925  0.00  0.00    +0.000 A 
ATOM      3  C   UNL     1     -71.405 -56.991 -28.741  0.00  0.00    +0.000 A 
ATOM      4  C   UNL     1     -70.080 -55.666 -30.258  0.00  0.00    +0.000 A 
ATOM      5  C   UNL     1     -71.464 -58.019 -29.682  0.00  0.00    +0.000 A 
ATOM      6  C   UNL     1     -70.711 -55.817 -29.027  0.00  0.00    +0.000 A 
ENDROOT
BRANCH   2   7
ATOM      7  O   UNL     1     -70.825 -58.855 -31.894  0.00  0.00    +0.000 OA
ATOM      8  C   UNL     1     -71.420 -60.073 -31.542  0.00  0.00    +0.000 C 
ENDBRANCH   2   7
BRANCH   3   9
ATOM      9  C   UNL     1     -72.052 -57.146 -27.480  0.00  0.00    +0.000 C 
ATOM     10  C   UNL     1     -72.598 -57.276 -26.418  0.00  0.00    +0.000 C 
BRANCH  10  11
ATOM     11  C   UNL     1     -73.298 -57.439 -25.065  0.00  0.00    +0.000 C 
BRANCH  11  12
ATOM     12  O   UNL     1     -73.905 -57.580 -23.889  0.00  0.00    +0.000 OA
BRANCH  12  14
ATOM     13  O   UNL     1     -74.330 -55.356 -23.306  0.00  0.00    +0.000 OA
ATOM     14  C   UNL     1     -73.905 -56.480 -23.111  0.00  0.00    +0.000 C 
ATOM     15  C   UNL     1     -73.274 -56.672 -21.773  0.00  0.00    +0.000 C 
ENDBRANCH  12  14
ENDBRANCH  11  12
ENDBRANCH  10  11
ENDBRANCH   3   9
BRANCH   1  16
ATOM     16  O   UNL     1     -69.486 -56.540 -32.419  0.00  0.00    +0.000 OA
BRANCH  16  18
ATOM     17  O   UNL     1     -71.287 -55.383 -33.329  0.00  0.00    +0.000 OA
ATOM     18  C   UNL     1     -70.299 -56.096 -33.454  0.00  0.00    +0.000 C 
BRANCH  18  19
ATOM     19  C   UNL     1     -69.817 -56.617 -34.758  0.00  0.00    +0.000 C 
ATOM     20  C   UNL     1     -70.603 -56.487 -36.056  0.00  0.00    +0.000 C 
BRANCH  19  21
ATOM     21  C   UNL     1     -68.558 -57.270 -34.816  0.00  0.00    +0.000 C 
ATOM     22  C   UNL     1     -67.195 -57.984 -34.883  0.00  0.00    +0.000 C 
ENDBRANCH  19  21
ENDBRANCH  18  19
ENDBRANCH  16  18
ENDBRANCH   1  16
TORSDOF 9
ENDMDL
MODEL 8
REMARK VINA RESULT:      -4.3     42.801     49.088
REMARK  Name = 122180587_TripolinolateA.pdbqt.pdb
REMARK  9 active torsions:
REMARK  status: ('A' for Active; 'I' for Inactive)
REMARK    1  A    between atoms: C_1  and  O_16
REMARK    2  A    between atoms: C_2  and  O_7
REMARK    3  A    between atoms: C_3  and  C_9
REMARK    4  A    between atoms: C_10  and  C_11
REMARK    5  A    between atoms: C_11  and  O_12
REMARK    6  A    between atoms: O_12  and  C_14
REMARK    7  A    between atoms: O_16  and  C_18
REMARK    8  A    between atoms: C_18  and  C_19
REMARK    9  A    between atoms: C_19  and  C_21
REMARK                            x       y       z     vdW  Elec       q    Type
REMARK                         _______ _______ _______ _____ _____    ______ ____
ROOT
ATOM      1  C   UNL     1     -70.122 -57.407 -31.786  0.00  0.00    +0.000 A 
ATOM      2  C   UNL     1     -71.013 -57.012 -32.789  0.00  0.00    +0.000 A 
ATOM      3  C   UNL     1     -69.189 -57.146 -34.383  0.00  0.00    +0.000 A 
ATOM      4  C   UNL     1     -68.773 -57.640 -32.060  0.00  0.00    +0.000 A 
ATOM      5  C   UNL     1     -70.529 -56.890 -34.095  0.00  0.00    +0.000 A 
ATOM      6  C   UNL     1     -68.310 -57.518 -33.367  0.00  0.00    +0.000 A 
ENDROOT
BRANCH   2   7
ATOM      7  O   UNL     1     -72.307 -56.751 -32.415  0.00  0.00    +0.000 OA
ATOM      8  C   UNL     1     -73.243 -57.742 -32.735  0.00  0.00    +0.000 C 
ENDBRANCH   2   7
BRANCH   3   9
ATOM      9  C   UNL     1     -68.715 -57.021 -35.722  0.00  0.00    +0.000 C 
ATOM     10  C   UNL     1     -68.314 -56.917 -36.850  0.00  0.00    +0.000 C 
BRANCH  10  11
ATOM     11  C   UNL     1     -67.800 -56.786 -38.287  0.00  0.00    +0.000 C 
BRANCH  11  12
ATOM     12  O   UNL     1     -67.353 -56.670 -39.535  0.00  0.00    +0.000 OA
BRANCH  12  14
ATOM     13  O   UNL     1     -66.182 -54.958 -40.615  0.00  0.00    +0.000 OA
ATOM     14  C   UNL     1     -67.081 -55.410 -39.930  0.00  0.00    +0.000 C 
ATOM     15  C   UNL     1     -68.051 -54.388 -39.442  0.00  0.00    +0.000 C 
ENDBRANCH  12  14
ENDBRANCH  11  12
ENDBRANCH  10  11
ENDBRANCH   3   9
BRANCH   1  16
ATOM     16  O   UNL     1     -70.559 -57.490 -30.458  0.00  0.00    +0.000 OA
BRANCH  16  18
ATOM     17  O   UNL     1     -69.791 -55.338 -30.023  0.00  0.00    +0.000 OA
ATOM     18  C   UNL     1     -70.558 -56.266 -29.799  0.00  0.00    +0.000 C 
BRANCH  18  19
ATOM     19  C   UNL     1     -71.614 -56.232 -28.757  0.00  0.00    +0.000 C 
ATOM     20  C   UNL     1     -72.844 -55.339 -28.839  0.00  0.00    +0.000 C 
BRANCH  19  21
ATOM     21  C   UNL     1     -71.488 -57.073 -27.620  0.00  0.00    +0.000 C 
ATOM     22  C   UNL     1     -71.356 -57.980 -26.382  0.00  0.00    +0.000 C 
ENDBRANCH  19  21
ENDBRANCH  18  19
ENDBRANCH  16  18
ENDBRANCH   1  16
TORSDOF 9
ENDMDL
MODEL 9
REMARK VINA RESULT:      -4.3     12.661     17.473
REMARK  Name = 122180587_TripolinolateA.pdbqt.pdb
REMARK  9 active torsions:
REMARK  status: ('A' for Active; 'I' for Inactive)
REMARK    1  A    between atoms: C_1  and  O_16
REMARK    2  A    between atoms: C_2  and  O_7
REMARK    3  A    between atoms: C_3  and  C_9
REMARK    4  A    between atoms: C_10  and  C_11
REMARK    5  A    between atoms: C_11  and  O_12
REMARK    6  A    between atoms: O_12  and  C_14
REMARK    7  A    between atoms: O_16  and  C_18
REMARK    8  A    between atoms: C_18  and  C_19
REMARK    9  A    between atoms: C_19  and  C_21
REMARK                            x       y       z     vdW  Elec       q    Type
REMARK                         _______ _______ _______ _____ _____    ______ ____
ROOT
ATOM      1  C   UNL     1     -66.071 -60.673 -71.136  0.00  0.00    +0.000 A 
ATOM      2  C   UNL     1     -66.946 -60.099 -72.064  0.00  0.00    +0.000 A 
ATOM      3  C   UNL     1     -65.429 -60.777 -73.830  0.00  0.00    +0.000 A 
ATOM      4  C   UNL     1     -64.871 -61.266 -71.536  0.00  0.00    +0.000 A 
ATOM      5  C   UNL     1     -66.612 -60.164 -73.419  0.00  0.00    +0.000 A 
ATOM      6  C   UNL     1     -64.557 -61.325 -72.890  0.00  0.00    +0.000 A 
ENDROOT
BRANCH   2   7
ATOM      7  O   UNL     1     -68.073 -59.489 -71.572  0.00  0.00    +0.000 OA
ATOM      8  C   UNL     1     -69.279 -60.163 -71.807  0.00  0.00    +0.000 C 
ENDBRANCH   2   7
BRANCH   3   9
ATOM      9  C   UNL     1     -65.107 -60.838 -75.218  0.00  0.00    +0.000 C 
ATOM     10  C   UNL     1     -64.835 -60.891 -76.387  0.00  0.00    +0.000 C 
BRANCH  10  11
ATOM     11  C   UNL     1     -64.486 -60.962 -77.877  0.00  0.00    +0.000 C 
BRANCH  11  12
ATOM     12  O   UNL     1     -64.183 -61.026 -79.171  0.00  0.00    +0.000 OA
BRANCH  12  14
ATOM     13  O   UNL     1     -62.117 -62.120 -79.177  0.00  0.00    +0.000 OA
ATOM     14  C   UNL     1     -62.876 -61.206 -79.444  0.00  0.00    +0.000 C 
ATOM     15  C   UNL     1     -62.245 -60.091 -80.207  0.00  0.00    +0.000 C 
ENDBRANCH  12  14
ENDBRANCH  11  12
ENDBRANCH  10  11
ENDBRANCH   3   9
BRANCH   1  16
ATOM     16  O   UNL     1     -66.348 -60.581 -69.765  0.00  0.00    +0.000 OA
BRANCH  16  18
ATOM     17  O   UNL     1     -67.649 -62.495 -69.537  0.00  0.00    +0.000 OA
ATOM     18  C   UNL     1     -66.705 -61.795 -69.192  0.00  0.00    +0.000 C 
BRANCH  18  19
ATOM     19  C   UNL     1     -65.788 -62.136 -68.076  0.00  0.00    +0.000 C 
ATOM     20  C   UNL     1     -65.738 -61.362 -66.766  0.00  0.00    +0.000 C 
BRANCH  19  21
ATOM     21  C   UNL     1     -64.911 -63.243 -68.218  0.00  0.00    +0.000 C 
ATOM     22  C   UNL     1     -63.953 -64.439 -68.376  0.00  0.00    +0.000 C 
ENDBRANCH  19  21
ENDBRANCH  18  19
ENDBRANCH  16  18
ENDBRANCH   1  16
TORSDOF 9
ENDMDL
