MODEL 1
REMARK VINA RESULT:      -5.7      0.000      0.000
REMARK  Name = 122178712_SalternamideA.pdbqt.pdb
REMARK  8 active torsions:
REMARK  status: ('A' for Active; 'I' for Inactive)
REMARK    1  A    between atoms: C_3  and  O_24
REMARK    2  A    between atoms: C_3  and  C_26
REMARK    3  A    between atoms: C_6  and  N_10
REMARK    4  A    between atoms: C_11  and  C_14
REMARK    5  A    between atoms: C_13  and  C_15
REMARK    6  A    between atoms: C_27  and  C_28
REMARK    7  A    between atoms: C_29  and  C_31
REMARK    8  A    between atoms: C_31  and  O_32
REMARK                            x       y       z     vdW  Elec       q    Type
REMARK                         _______ _______ _______ _____ _____    ______ ____
ROOT
ATOM      1 CL   UNL     1     -62.420 -44.554 -51.344  0.00  0.00    +0.000 Cl
ATOM      2  O   UNL     1     -63.308 -47.507 -50.688  0.00  0.00    +0.000 OA
ATOM      3  C   UNL     1     -64.783 -45.866 -54.388  0.00  0.00    +0.000 C 
ATOM      4  C   UNL     1     -64.938 -47.200 -53.784  0.00  0.00    +0.000 C 
ATOM      5  C   UNL     1     -63.959 -45.249 -53.336  0.00  0.00    +0.000 C 
ATOM      6  C   UNL     1     -64.577 -47.833 -52.705  0.00  0.00    +0.000 C 
ATOM      7  C   UNL     1     -63.458 -45.594 -52.186  0.00  0.00    +0.000 C 
ATOM      8  C   UNL     1     -63.724 -47.014 -51.728  0.00  0.00    +0.000 C 
ENDROOT
BRANCH   6  10
ATOM      9  O   UNL     1     -63.483 -50.303 -53.822  0.00  0.00    +0.000 OA
ATOM     10  N   UNL     1     -64.880 -49.131 -52.387  0.00  0.00    +0.000 N 
ATOM     11  C   UNL     1     -64.333 -50.259 -52.945  0.00  0.00    +0.000 C 
ATOM     12  H   UNL     1     -65.587 -49.246 -51.662  0.00  0.00    +0.000 HD
BRANCH  11  14
ATOM     13  C   UNL     1     -65.258 -52.543 -51.983  0.00  0.00    +0.000 C 
ATOM     14  C   UNL     1     -64.838 -51.503 -52.413  0.00  0.00    +0.000 C 
BRANCH  13  15
ATOM     15  C   UNL     1     -65.749 -53.773 -51.482  0.00  0.00    +0.000 C 
ATOM     16  C   UNL     1     -66.943 -54.387 -52.157  0.00  0.00    +0.000 C 
ATOM     17  C   UNL     1     -65.232 -54.446 -50.357  0.00  0.00    +0.000 C 
ATOM     18  C   UNL     1     -64.724 -55.132 -49.235  0.00  0.00    +0.000 C 
ATOM     19  C   UNL     1     -63.338 -54.781 -48.779  0.00  0.00    +0.000 C 
ATOM     20  C   UNL     1     -65.431 -56.100 -48.503  0.00  0.00    +0.000 C 
ATOM     21  C   UNL     1     -66.080 -56.984 -47.826  0.00  0.00    +0.000 C 
ATOM     22  C   UNL     1     -66.020 -58.421 -48.243  0.00  0.00    +0.000 C 
ATOM     23  C   UNL     1     -67.137 -56.536 -46.865  0.00  0.00    +0.000 C 
ENDBRANCH  13  15
ENDBRANCH  11  14
ENDBRANCH   6  10
BRANCH   3  24
ATOM     24  O   UNL     1     -66.040 -45.223 -54.430  0.00  0.00    +0.000 OA
ATOM     25  H   UNL     1     -66.638 -45.836 -54.892  0.00  0.00    +0.000 HD
ENDBRANCH   3  24
BRANCH   3  26
ATOM     26  C   UNL     1     -64.166 -45.869 -55.708  0.00  0.00    +0.000 C 
ATOM     27  C   UNL     1     -63.522 -45.877 -57.097  0.00  0.00    +0.000 C 
BRANCH  27  28
ATOM     28  C   UNL     1     -62.881 -45.887 -58.488  0.00  0.00    +0.000 C 
ATOM     29  C   UNL     1     -62.240 -45.900 -59.879  0.00  0.00    +0.000 C 
BRANCH  29  31
ATOM     30  O   UNL     1     -60.655 -45.262 -61.472  0.00  0.00    +0.000 OA
ATOM     31  C   UNL     1     -61.643 -45.912 -61.180  0.00  0.00    +0.000 C 
BRANCH  31  32
ATOM     32  O   UNL     1     -62.270 -46.710 -62.062  0.00  0.00    +0.000 OA
ATOM     33  H   UNL     1     -63.190 -46.745 -61.729  0.00  0.00    +0.000 HD
ENDBRANCH  31  32
ENDBRANCH  29  31
ENDBRANCH  27  28
ENDBRANCH   3  26
TORSDOF 8
ENDMDL
MODEL 2
REMARK VINA RESULT:      -5.7     33.509     36.692
REMARK  Name = 122178712_SalternamideA.pdbqt.pdb
REMARK  8 active torsions:
REMARK  status: ('A' for Active; 'I' for Inactive)
REMARK    1  A    between atoms: C_3  and  O_24
REMARK    2  A    between atoms: C_3  and  C_26
REMARK    3  A    between atoms: C_6  and  N_10
REMARK    4  A    between atoms: C_11  and  C_14
REMARK    5  A    between atoms: C_13  and  C_15
REMARK    6  A    between atoms: C_27  and  C_28
REMARK    7  A    between atoms: C_29  and  C_31
REMARK    8  A    between atoms: C_31  and  O_32
REMARK                            x       y       z     vdW  Elec       q    Type
REMARK                         _______ _______ _______ _____ _____    ______ ____
ROOT
ATOM      1 CL   UNL     1     -62.428 -52.547 -21.223  0.00  0.00    +0.000 Cl
ATOM      2  O   UNL     1     -62.604 -54.964 -19.206  0.00  0.00    +0.000 OA
ATOM      3  C   UNL     1     -65.286 -51.677 -18.457  0.00  0.00    +0.000 C 
ATOM      4  C   UNL     1     -65.120 -52.973 -17.778  0.00  0.00    +0.000 C 
ATOM      5  C   UNL     1     -64.247 -51.841 -19.487  0.00  0.00    +0.000 C 
ATOM      6  C   UNL     1     -64.375 -54.037 -17.868  0.00  0.00    +0.000 C 
ATOM      7  C   UNL     1     -63.368 -52.738 -19.827  0.00  0.00    +0.000 C 
ATOM      8  C   UNL     1     -63.348 -54.012 -19.007  0.00  0.00    +0.000 C 
ENDROOT
BRANCH   6  10
ATOM      9  O   UNL     1     -63.117 -54.491 -15.269  0.00  0.00    +0.000 OA
ATOM     10  N   UNL     1     -64.439 -55.143 -17.062  0.00  0.00    +0.000 N 
ATOM     11  C   UNL     1     -63.826 -55.304 -15.844  0.00  0.00    +0.000 C 
ATOM     12  H   UNL     1     -65.002 -55.910 -17.424  0.00  0.00    +0.000 HD
BRANCH  11  14
ATOM     13  C   UNL     1     -64.268 -57.643 -14.690  0.00  0.00    +0.000 C 
ATOM     14  C   UNL     1     -64.071 -56.577 -15.208  0.00  0.00    +0.000 C 
BRANCH  13  15
ATOM     15  C   UNL     1     -64.494 -58.902 -14.082  0.00  0.00    +0.000 C 
ATOM     16  C   UNL     1     -64.750 -58.937 -12.601  0.00  0.00    +0.000 C 
ATOM     17  C   UNL     1     -64.446 -60.139 -14.754  0.00  0.00    +0.000 C 
ATOM     18  C   UNL     1     -64.404 -61.384 -15.413  0.00  0.00    +0.000 C 
ATOM     19  C   UNL     1     -64.538 -61.381 -16.908  0.00  0.00    +0.000 C 
ATOM     20  C   UNL     1     -64.221 -62.621 -14.774  0.00  0.00    +0.000 C 
ATOM     21  C   UNL     1     -64.046 -63.757 -14.189  0.00  0.00    +0.000 C 
ATOM     22  C   UNL     1     -65.234 -64.510 -13.675  0.00  0.00    +0.000 C 
ATOM     23  C   UNL     1     -62.673 -64.140 -13.733  0.00  0.00    +0.000 C 
ENDBRANCH  13  15
ENDBRANCH  11  14
ENDBRANCH   6  10
BRANCH   3  24
ATOM     24  O   UNL     1     -64.909 -50.637 -17.578  0.00  0.00    +0.000 OA
ATOM     25  H   UNL     1     -64.089 -50.935 -17.148  0.00  0.00    +0.000 HD
ENDBRANCH   3  24
BRANCH   3  26
ATOM     26  C   UNL     1     -66.623 -51.440 -18.985  0.00  0.00    +0.000 C 
ATOM     27  C   UNL     1     -68.028 -51.197 -19.545  0.00  0.00    +0.000 C 
BRANCH  27  28
ATOM     28  C   UNL     1     -69.432 -50.956 -20.106  0.00  0.00    +0.000 C 
ATOM     29  C   UNL     1     -70.837 -50.713 -20.666  0.00  0.00    +0.000 C 
BRANCH  29  31
ATOM     30  O   UNL     1     -72.382 -49.727 -22.116  0.00  0.00    +0.000 OA
ATOM     31  C   UNL     1     -72.149 -50.485 -21.191  0.00  0.00    +0.000 C 
BRANCH  31  32
ATOM     32  O   UNL     1     -73.115 -51.186 -20.570  0.00  0.00    +0.000 OA
ATOM     33  H   UNL     1     -73.067 -50.874 -19.643  0.00  0.00    +0.000 HD
ENDBRANCH  31  32
ENDBRANCH  29  31
ENDBRANCH  27  28
ENDBRANCH   3  26
TORSDOF 8
ENDMDL
MODEL 3
REMARK VINA RESULT:      -5.6     10.449     16.322
REMARK  Name = 122178712_SalternamideA.pdbqt.pdb
REMARK  8 active torsions:
REMARK  status: ('A' for Active; 'I' for Inactive)
REMARK    1  A    between atoms: C_3  and  O_24
REMARK    2  A    between atoms: C_3  and  C_26
REMARK    3  A    between atoms: C_6  and  N_10
REMARK    4  A    between atoms: C_11  and  C_14
REMARK    5  A    between atoms: C_13  and  C_15
REMARK    6  A    between atoms: C_27  and  C_28
REMARK    7  A    between atoms: C_29  and  C_31
REMARK    8  A    between atoms: C_31  and  O_32
REMARK                            x       y       z     vdW  Elec       q    Type
REMARK                         _______ _______ _______ _____ _____    ______ ____
ROOT
ATOM      1 CL   UNL     1     -71.545 -55.183 -42.804  0.00  0.00    +0.000 Cl
ATOM      2  O   UNL     1     -69.219 -55.967 -44.783  0.00  0.00    +0.000 OA
ATOM      3  C   UNL     1     -68.022 -54.903 -40.784  0.00  0.00    +0.000 C 
ATOM      4  C   UNL     1     -67.241 -55.366 -41.943  0.00  0.00    +0.000 C 
ATOM      5  C   UNL     1     -69.356 -54.913 -41.406  0.00  0.00    +0.000 C 
ATOM      6  C   UNL     1     -67.441 -55.708 -43.183  0.00  0.00    +0.000 C 
ATOM      7  C   UNL     1     -69.867 -55.184 -42.571  0.00  0.00    +0.000 C 
ATOM      8  C   UNL     1     -68.902 -55.649 -43.644  0.00  0.00    +0.000 C 
ENDROOT
BRANCH   6  10
ATOM      9  O   UNL     1     -65.064 -57.345 -42.716  0.00  0.00    +0.000 OA
ATOM     10  N   UNL     1     -66.484 -56.113 -44.077  0.00  0.00    +0.000 N 
ATOM     11  C   UNL     1     -65.383 -56.886 -43.803  0.00  0.00    +0.000 C 
ATOM     12  H   UNL     1     -66.623 -55.794 -45.034  0.00  0.00    +0.000 HD
BRANCH  11  14
ATOM     13  C   UNL     1     -63.831 -57.400 -45.882  0.00  0.00    +0.000 C 
ATOM     14  C   UNL     1     -64.541 -57.164 -44.942  0.00  0.00    +0.000 C 
BRANCH  13  15
ATOM     15  C   UNL     1     -62.991 -57.686 -46.986  0.00  0.00    +0.000 C 
ATOM     16  C   UNL     1     -62.266 -59.002 -47.002  0.00  0.00    +0.000 C 
ATOM     17  C   UNL     1     -62.740 -56.802 -48.054  0.00  0.00    +0.000 C 
ATOM     18  C   UNL     1     -62.483 -55.930 -49.131  0.00  0.00    +0.000 C 
ATOM     19  C   UNL     1     -63.449 -54.805 -49.358  0.00  0.00    +0.000 C 
ATOM     20  C   UNL     1     -61.375 -56.026 -49.989  0.00  0.00    +0.000 C 
ATOM     21  C   UNL     1     -60.355 -56.108 -50.774  0.00  0.00    +0.000 C 
ATOM     22  C   UNL     1     -60.436 -56.967 -51.997  0.00  0.00    +0.000 C 
ATOM     23  C   UNL     1     -59.020 -55.634 -50.288  0.00  0.00    +0.000 C 
ENDBRANCH  13  15
ENDBRANCH  11  14
ENDBRANCH   6  10
BRANCH   3  24
ATOM     24  O   UNL     1     -67.662 -53.571 -40.479  0.00  0.00    +0.000 OA
ATOM     25  H   UNL     1     -66.831 -53.403 -40.957  0.00  0.00    +0.000 HD
ENDBRANCH   3  24
BRANCH   3  26
ATOM     26  C   UNL     1     -67.904 -55.748 -39.602  0.00  0.00    +0.000 C 
ATOM     27  C   UNL     1     -67.775 -56.635 -38.360  0.00  0.00    +0.000 C 
BRANCH  27  28
ATOM     28  C   UNL     1     -67.642 -57.522 -37.119  0.00  0.00    +0.000 C 
ATOM     29  C   UNL     1     -67.509 -58.407 -35.876  0.00  0.00    +0.000 C 
BRANCH  29  31
ATOM     30  O   UNL     1     -67.264 -60.446 -34.761  0.00  0.00    +0.000 OA
ATOM     31  C   UNL     1     -67.387 -59.234 -34.715  0.00  0.00    +0.000 C 
BRANCH  31  32
ATOM     32  O   UNL     1     -67.418 -58.555 -33.554  0.00  0.00    +0.000 OA
ATOM     33  H   UNL     1     -68.241 -58.028 -33.617  0.00  0.00    +0.000 HD
ENDBRANCH  31  32
ENDBRANCH  29  31
ENDBRANCH  27  28
ENDBRANCH   3  26
TORSDOF 8
ENDMDL
MODEL 4
REMARK VINA RESULT:      -5.6     22.944     28.502
REMARK  Name = 122178712_SalternamideA.pdbqt.pdb
REMARK  8 active torsions:
REMARK  status: ('A' for Active; 'I' for Inactive)
REMARK    1  A    between atoms: C_3  and  O_24
REMARK    2  A    between atoms: C_3  and  C_26
REMARK    3  A    between atoms: C_6  and  N_10
REMARK    4  A    between atoms: C_11  and  C_14
REMARK    5  A    between atoms: C_13  and  C_15
REMARK    6  A    between atoms: C_27  and  C_28
REMARK    7  A    between atoms: C_29  and  C_31
REMARK    8  A    between atoms: C_31  and  O_32
REMARK                            x       y       z     vdW  Elec       q    Type
REMARK                         _______ _______ _______ _____ _____    ______ ____
ROOT
ATOM      1 CL   UNL     1     -58.633 -47.905 -24.498  0.00  0.00    +0.000 Cl
ATOM      2  O   UNL     1     -60.791 -47.621 -26.779  0.00  0.00    +0.000 OA
ATOM      3  C   UNL     1     -60.538 -51.482 -24.885  0.00  0.00    +0.000 C 
ATOM      4  C   UNL     1     -61.439 -50.966 -25.928  0.00  0.00    +0.000 C 
ATOM      5  C   UNL     1     -59.736 -50.265 -24.675  0.00  0.00    +0.000 C 
ATOM      6  C   UNL     1     -61.635 -49.866 -26.596  0.00  0.00    +0.000 C 
ATOM      7  C   UNL     1     -59.677 -49.061 -25.163  0.00  0.00    +0.000 C 
ATOM      8  C   UNL     1     -60.692 -48.712 -26.234  0.00  0.00    +0.000 C 
ENDROOT
BRANCH   6  10
ATOM      9  O   UNL     1     -64.426 -49.060 -26.270  0.00  0.00    +0.000 OA
ATOM     10  N   UNL     1     -62.590 -49.659 -27.557  0.00  0.00    +0.000 N 
ATOM     11  C   UNL     1     -63.892 -49.278 -27.347  0.00  0.00    +0.000 C 
ATOM     12  H   UNL     1     -62.280 -49.811 -28.515  0.00  0.00    +0.000 HD
BRANCH  11  14
ATOM     13  C   UNL     1     -65.325 -48.998 -29.553  0.00  0.00    +0.000 C 
ATOM     14  C   UNL     1     -64.679 -49.130 -28.549  0.00  0.00    +0.000 C 
BRANCH  13  15
ATOM     15  C   UNL     1     -66.079 -48.841 -30.742  0.00  0.00    +0.000 C 
ATOM     16  C   UNL     1     -67.169 -49.836 -31.025  0.00  0.00    +0.000 C 
ATOM     17  C   UNL     1     -65.851 -47.846 -31.713  0.00  0.00    +0.000 C 
ATOM     18  C   UNL     1     -65.636 -46.855 -32.692  0.00  0.00    +0.000 C 
ATOM     19  C   UNL     1     -64.850 -45.642 -32.289  0.00  0.00    +0.000 C 
ATOM     20  C   UNL     1     -66.085 -46.934 -34.020  0.00  0.00    +0.000 C 
ATOM     21  C   UNL     1     -66.490 -47.007 -35.242  0.00  0.00    +0.000 C 
ATOM     22  C   UNL     1     -67.857 -46.507 -35.595  0.00  0.00    +0.000 C 
ATOM     23  C   UNL     1     -65.750 -47.883 -36.205  0.00  0.00    +0.000 C 
ENDBRANCH  13  15
ENDBRANCH  11  14
ENDBRANCH   6  10
BRANCH   3  24
ATOM     24  O   UNL     1     -59.716 -52.491 -25.433  0.00  0.00    +0.000 OA
ATOM     25  H   UNL     1     -60.299 -53.037 -25.989  0.00  0.00    +0.000 HD
ENDBRANCH   3  24
BRANCH   3  26
ATOM     26  C   UNL     1     -61.215 -51.967 -23.689  0.00  0.00    +0.000 C 
ATOM     27  C   UNL     1     -61.931 -52.473 -22.433  0.00  0.00    +0.000 C 
BRANCH  27  28
ATOM     28  C   UNL     1     -62.650 -52.976 -21.178  0.00  0.00    +0.000 C 
ATOM     29  C   UNL     1     -63.366 -53.479 -19.921  0.00  0.00    +0.000 C 
BRANCH  29  31
ATOM     30  O   UNL     1     -63.453 -54.293 -17.732  0.00  0.00    +0.000 OA
ATOM     31  C   UNL     1     -64.035 -53.947 -18.746  0.00  0.00    +0.000 C 
BRANCH  31  32
ATOM     32  O   UNL     1     -65.376 -53.975 -18.854  0.00  0.00    +0.000 OA
ATOM     33  H   UNL     1     -65.550 -54.803 -19.346  0.00  0.00    +0.000 HD
ENDBRANCH  31  32
ENDBRANCH  29  31
ENDBRANCH  27  28
ENDBRANCH   3  26
TORSDOF 8
ENDMDL
MODEL 5
REMARK VINA RESULT:      -5.6     32.207     37.614
REMARK  Name = 122178712_SalternamideA.pdbqt.pdb
REMARK  8 active torsions:
REMARK  status: ('A' for Active; 'I' for Inactive)
REMARK    1  A    between atoms: C_3  and  O_24
REMARK    2  A    between atoms: C_3  and  C_26
REMARK    3  A    between atoms: C_6  and  N_10
REMARK    4  A    between atoms: C_11  and  C_14
REMARK    5  A    between atoms: C_13  and  C_15
REMARK    6  A    between atoms: C_27  and  C_28
REMARK    7  A    between atoms: C_29  and  C_31
REMARK    8  A    between atoms: C_31  and  O_32
REMARK                            x       y       z     vdW  Elec       q    Type
REMARK                         _______ _______ _______ _____ _____    ______ ____
ROOT
ATOM      1 CL   UNL     1     -63.348 -51.513 -14.724  0.00  0.00    +0.000 Cl
ATOM      2  O   UNL     1     -63.954 -54.408 -13.630  0.00  0.00    +0.000 OA
ATOM      3  C   UNL     1     -64.916 -53.710 -17.772  0.00  0.00    +0.000 C 
ATOM      4  C   UNL     1     -65.006 -54.923 -16.942  0.00  0.00    +0.000 C 
ATOM      5  C   UNL     1     -64.388 -52.791 -16.750  0.00  0.00    +0.000 C 
ATOM      6  C   UNL     1     -64.774 -55.288 -15.713  0.00  0.00    +0.000 C 
ATOM      7  C   UNL     1     -64.069 -52.841 -15.490  0.00  0.00    +0.000 C 
ATOM      8  C   UNL     1     -64.230 -54.182 -14.802  0.00  0.00    +0.000 C 
ENDROOT
BRANCH   6  10
ATOM      9  O   UNL     1     -63.161 -57.697 -16.091  0.00  0.00    +0.000 OA
ATOM     10  N   UNL     1     -64.961 -56.541 -15.191  0.00  0.00    +0.000 N 
ATOM     11  C   UNL     1     -64.169 -57.641 -15.401  0.00  0.00    +0.000 C 
ATOM     12  H   UNL     1     -65.778 -56.642 -14.590  0.00  0.00    +0.000 HD
BRANCH  11  14
ATOM     13  C   UNL     1     -64.951 -59.839 -14.152  0.00  0.00    +0.000 C 
ATOM     14  C   UNL     1     -64.602 -58.837 -14.718  0.00  0.00    +0.000 C 
BRANCH  13  15
ATOM     15  C   UNL     1     -65.355 -61.020 -13.483  0.00  0.00    +0.000 C 
ATOM     16  C   UNL     1     -66.152 -60.879 -12.217  0.00  0.00    +0.000 C 
ATOM     17  C   UNL     1     -65.020 -62.327 -13.889  0.00  0.00    +0.000 C 
ATOM     18  C   UNL     1     -64.696 -63.641 -14.284  0.00  0.00    +0.000 C 
ATOM     19  C   UNL     1     -64.254 -63.848 -15.703  0.00  0.00    +0.000 C 
ATOM     20  C   UNL     1     -64.734 -64.762 -13.438  0.00  0.00    +0.000 C 
ATOM     21  C   UNL     1     -64.762 -65.790 -12.662  0.00  0.00    +0.000 C 
ATOM     22  C   UNL     1     -66.034 -66.566 -12.514  0.00  0.00    +0.000 C 
ATOM     23  C   UNL     1     -63.653 -65.991 -11.676  0.00  0.00    +0.000 C 
ENDBRANCH  13  15
ENDBRANCH  11  14
ENDBRANCH   6  10
BRANCH   3  24
ATOM     24  O   UNL     1     -66.215 -53.298 -18.141  0.00  0.00    +0.000 OA
ATOM     25  H   UNL     1     -66.564 -54.000 -18.717  0.00  0.00    +0.000 HD
ENDBRANCH   3  24
BRANCH   3  26
ATOM     26  C   UNL     1     -64.069 -53.848 -18.950  0.00  0.00    +0.000 C 
ATOM     27  C   UNL     1     -63.181 -53.998 -20.189  0.00  0.00    +0.000 C 
BRANCH  27  28
ATOM     28  C   UNL     1     -62.296 -54.152 -21.429  0.00  0.00    +0.000 C 
ATOM     29  C   UNL     1     -61.408 -54.304 -22.667  0.00  0.00    +0.000 C 
BRANCH  29  31
ATOM     30  O   UNL     1     -59.359 -54.440 -23.784  0.00  0.00    +0.000 OA
ATOM     31  C   UNL     1     -60.577 -54.448 -23.824  0.00  0.00    +0.000 C 
BRANCH  31  32
ATOM     32  O   UNL     1     -61.261 -54.593 -24.973  0.00  0.00    +0.000 OA
ATOM     33  H   UNL     1     -62.192 -54.445 -24.708  0.00  0.00    +0.000 HD
ENDBRANCH  31  32
ENDBRANCH  29  31
ENDBRANCH  27  28
ENDBRANCH   3  26
TORSDOF 8
ENDMDL
MODEL 6
REMARK VINA RESULT:      -5.5     28.373     33.480
REMARK  Name = 122178712_SalternamideA.pdbqt.pdb
REMARK  8 active torsions:
REMARK  status: ('A' for Active; 'I' for Inactive)
REMARK    1  A    between atoms: C_3  and  O_24
REMARK    2  A    between atoms: C_3  and  C_26
REMARK    3  A    between atoms: C_6  and  N_10
REMARK    4  A    between atoms: C_11  and  C_14
REMARK    5  A    between atoms: C_13  and  C_15
REMARK    6  A    between atoms: C_27  and  C_28
REMARK    7  A    between atoms: C_29  and  C_31
REMARK    8  A    between atoms: C_31  and  O_32
REMARK                            x       y       z     vdW  Elec       q    Type
REMARK                         _______ _______ _______ _____ _____    ______ ____
ROOT
ATOM      1 CL   UNL     1     -58.523 -50.560 -22.520  0.00  0.00    +0.000 Cl
ATOM      2  O   UNL     1     -60.182 -51.679 -20.083  0.00  0.00    +0.000 OA
ATOM      3  C   UNL     1     -61.390 -53.053 -23.983  0.00  0.00    +0.000 C 
ATOM      4  C   UNL     1     -61.880 -53.391 -22.637  0.00  0.00    +0.000 C 
ATOM      5  C   UNL     1     -60.344 -52.092 -23.596  0.00  0.00    +0.000 C 
ATOM      6  C   UNL     1     -61.640 -53.068 -21.398  0.00  0.00    +0.000 C 
ATOM      7  C   UNL     1     -59.881 -51.573 -22.496  0.00  0.00    +0.000 C 
ATOM      8  C   UNL     1     -60.514 -52.046 -21.203  0.00  0.00    +0.000 C 
ENDROOT
BRANCH   6  10
ATOM      9  O   UNL     1     -63.902 -51.936 -19.933  0.00  0.00    +0.000 OA
ATOM     10  N   UNL     1     -62.283 -53.560 -20.293  0.00  0.00    +0.000 N 
ATOM     11  C   UNL     1     -63.347 -52.985 -19.642  0.00  0.00    +0.000 C 
ATOM     12  H   UNL     1     -61.917 -54.440 -19.935  0.00  0.00    +0.000 HD
BRANCH  11  14
ATOM     13  C   UNL     1     -64.234 -54.357 -17.562  0.00  0.00    +0.000 C 
ATOM     14  C   UNL     1     -63.830 -53.728 -18.502  0.00  0.00    +0.000 C 
BRANCH  13  15
ATOM     15  C   UNL     1     -64.705 -55.105 -16.455  0.00  0.00    +0.000 C 
ATOM     16  C   UNL     1     -65.929 -54.611 -15.736  0.00  0.00    +0.000 C 
ATOM     17  C   UNL     1     -64.081 -56.258 -15.940  0.00  0.00    +0.000 C 
ATOM     18  C   UNL     1     -63.469 -57.415 -15.416  0.00  0.00    +0.000 C 
ATOM     19  C   UNL     1     -62.506 -58.150 -16.301  0.00  0.00    +0.000 C 
ATOM     20  C   UNL     1     -63.678 -57.911 -14.119  0.00  0.00    +0.000 C 
ATOM     21  C   UNL     1     -63.864 -58.364 -12.927  0.00  0.00    +0.000 C 
ATOM     22  C   UNL     1     -64.990 -59.318 -12.669  0.00  0.00    +0.000 C 
ATOM     23  C   UNL     1     -63.188 -57.687 -11.775  0.00  0.00    +0.000 C 
ENDBRANCH  13  15
ENDBRANCH  11  14
ENDBRANCH   6  10
BRANCH   3  24
ATOM     24  O   UNL     1     -62.405 -52.374 -24.694  0.00  0.00    +0.000 OA
ATOM     25  H   UNL     1     -62.812 -51.761 -24.058  0.00  0.00    +0.000 HD
ENDBRANCH   3  24
BRANCH   3  26
ATOM     26  C   UNL     1     -60.902 -54.192 -24.751  0.00  0.00    +0.000 C 
ATOM     27  C   UNL     1     -60.393 -55.387 -25.562  0.00  0.00    +0.000 C 
BRANCH  27  28
ATOM     28  C   UNL     1     -59.886 -56.581 -26.376  0.00  0.00    +0.000 C 
ATOM     29  C   UNL     1     -59.377 -57.776 -27.188  0.00  0.00    +0.000 C 
BRANCH  29  31
ATOM     30  O   UNL     1     -57.748 -59.014 -28.316  0.00  0.00    +0.000 OA
ATOM     31  C   UNL     1     -58.903 -58.893 -27.946  0.00  0.00    +0.000 C 
BRANCH  31  32
ATOM     32  O   UNL     1     -59.849 -59.809 -28.220  0.00  0.00    +0.000 OA
ATOM     33  H   UNL     1     -59.341 -60.637 -28.342  0.00  0.00    +0.000 HD
ENDBRANCH  31  32
ENDBRANCH  29  31
ENDBRANCH  27  28
ENDBRANCH   3  26
TORSDOF 8
ENDMDL
MODEL 7
REMARK VINA RESULT:      -5.5     22.007     29.425
REMARK  Name = 122178712_SalternamideA.pdbqt.pdb
REMARK  8 active torsions:
REMARK  status: ('A' for Active; 'I' for Inactive)
REMARK    1  A    between atoms: C_3  and  O_24
REMARK    2  A    between atoms: C_3  and  C_26
REMARK    3  A    between atoms: C_6  and  N_10
REMARK    4  A    between atoms: C_11  and  C_14
REMARK    5  A    between atoms: C_13  and  C_15
REMARK    6  A    between atoms: C_27  and  C_28
REMARK    7  A    between atoms: C_29  and  C_31
REMARK    8  A    between atoms: C_31  and  O_32
REMARK                            x       y       z     vdW  Elec       q    Type
REMARK                         _______ _______ _______ _____ _____    ______ ____
ROOT
ATOM      1 CL   UNL     1     -76.922 -59.000 -26.701  0.00  0.00    +0.000 Cl
ATOM      2  O   UNL     1     -74.908 -58.776 -29.117  0.00  0.00    +0.000 OA
ATOM      3  C   UNL     1     -73.246 -58.104 -25.199  0.00  0.00    +0.000 C 
ATOM      4  C   UNL     1     -72.619 -58.136 -26.531  0.00  0.00    +0.000 C 
ATOM      5  C   UNL     1     -74.633 -58.377 -25.609  0.00  0.00    +0.000 C 
ATOM      6  C   UNL     1     -72.968 -58.309 -27.773  0.00  0.00    +0.000 C 
ATOM      7  C   UNL     1     -75.281 -58.580 -26.719  0.00  0.00    +0.000 C 
ATOM      8  C   UNL     1     -74.461 -58.577 -27.994  0.00  0.00    +0.000 C 
ENDROOT
BRANCH   6  10
ATOM      9  O   UNL     1     -71.658 -56.016 -29.027  0.00  0.00    +0.000 OA
ATOM     10  N   UNL     1     -72.135 -58.281 -28.861  0.00  0.00    +0.000 N 
ATOM     11  C   UNL     1     -71.544 -57.171 -29.410  0.00  0.00    +0.000 C 
ATOM     12  H   UNL     1     -71.953 -59.187 -29.290  0.00  0.00    +0.000 HD
BRANCH  11  14
ATOM     13  C   UNL     1     -70.000 -57.653 -31.503  0.00  0.00    +0.000 C 
ATOM     14  C   UNL     1     -70.707 -57.437 -30.557  0.00  0.00    +0.000 C 
BRANCH  13  15
ATOM     15  C   UNL     1     -69.160 -57.911 -32.615  0.00  0.00    +0.000 C 
ATOM     16  C   UNL     1     -67.695 -58.127 -32.360  0.00  0.00    +0.000 C 
ATOM     17  C   UNL     1     -69.587 -57.930 -33.957  0.00  0.00    +0.000 C 
ATOM     18  C   UNL     1     -70.000 -57.955 -35.304  0.00  0.00    +0.000 C 
ATOM     19  C   UNL     1     -71.465 -58.131 -35.576  0.00  0.00    +0.000 C 
ATOM     20  C   UNL     1     -69.143 -57.803 -36.406  0.00  0.00    +0.000 C 
ATOM     21  C   UNL     1     -68.357 -57.657 -37.418  0.00  0.00    +0.000 C 
ATOM     22  C   UNL     1     -67.687 -58.859 -38.008  0.00  0.00    +0.000 C 
ATOM     23  C   UNL     1     -67.865 -56.287 -37.768  0.00  0.00    +0.000 C 
ENDBRANCH  13  15
ENDBRANCH  11  14
ENDBRANCH   6  10
BRANCH   3  24
ATOM     24  O   UNL     1     -73.165 -56.795 -24.675  0.00  0.00    +0.000 OA
ATOM     25  H   UNL     1     -72.446 -56.814 -24.020  0.00  0.00    +0.000 HD
ENDBRANCH   3  24
BRANCH   3  26
ATOM     26  C   UNL     1     -72.700 -59.068 -24.252  0.00  0.00    +0.000 C 
ATOM     27  C   UNL     1     -72.131 -60.082 -23.256  0.00  0.00    +0.000 C 
BRANCH  27  28
ATOM     28  C   UNL     1     -71.567 -61.098 -22.258  0.00  0.00    +0.000 C 
ATOM     29  C   UNL     1     -71.000 -62.111 -21.260  0.00  0.00    +0.000 C 
BRANCH  29  31
ATOM     30  O   UNL     1     -71.110 -63.995 -19.881  0.00  0.00    +0.000 OA
ATOM     31  C   UNL     1     -70.470 -63.058 -20.326  0.00  0.00    +0.000 C 
BRANCH  31  32
ATOM     32  O   UNL     1     -69.193 -62.825 -19.976  0.00  0.00    +0.000 OA
ATOM     33  H   UNL     1     -69.198 -62.924 -19.002  0.00  0.00    +0.000 HD
ENDBRANCH  31  32
ENDBRANCH  29  31
ENDBRANCH  27  28
ENDBRANCH   3  26
TORSDOF 8
ENDMDL
MODEL 8
REMARK VINA RESULT:      -5.4     21.843     26.381
REMARK  Name = 122178712_SalternamideA.pdbqt.pdb
REMARK  8 active torsions:
REMARK  status: ('A' for Active; 'I' for Inactive)
REMARK    1  A    between atoms: C_3  and  O_24
REMARK    2  A    between atoms: C_3  and  C_26
REMARK    3  A    between atoms: C_6  and  N_10
REMARK    4  A    between atoms: C_11  and  C_14
REMARK    5  A    between atoms: C_13  and  C_15
REMARK    6  A    between atoms: C_27  and  C_28
REMARK    7  A    between atoms: C_29  and  C_31
REMARK    8  A    between atoms: C_31  and  O_32
REMARK                            x       y       z     vdW  Elec       q    Type
REMARK                         _______ _______ _______ _____ _____    ______ ____
ROOT
ATOM      1 CL   UNL     1     -60.617 -46.474 -27.274  0.00  0.00    +0.000 Cl
ATOM      2  O   UNL     1     -59.800 -49.387 -26.388  0.00  0.00    +0.000 OA
ATOM      3  C   UNL     1     -63.977 -48.772 -27.244  0.00  0.00    +0.000 C 
ATOM      4  C   UNL     1     -63.229 -49.982 -26.863  0.00  0.00    +0.000 C 
ATOM      5  C   UNL     1     -62.855 -47.819 -27.249  0.00  0.00    +0.000 C 
ATOM      6  C   UNL     1     -62.008 -50.325 -26.568  0.00  0.00    +0.000 C 
ATOM      7  C   UNL     1     -61.578 -47.842 -27.004  0.00  0.00    +0.000 C 
ATOM      8  C   UNL     1     -60.984 -49.185 -26.626  0.00  0.00    +0.000 C 
ENDROOT
BRANCH   6  10
ATOM      9  O   UNL     1     -61.963 -51.611 -23.944  0.00  0.00    +0.000 OA
ATOM     10  N   UNL     1     -61.577 -51.581 -26.232  0.00  0.00    +0.000 N 
ATOM     11  C   UNL     1     -61.579 -52.138 -24.977  0.00  0.00    +0.000 C 
ATOM     12  H   UNL     1     -61.222 -52.139 -27.007  0.00  0.00    +0.000 HD
BRANCH  11  14
ATOM     13  C   UNL     1     -60.644 -54.609 -24.848  0.00  0.00    +0.000 C 
ATOM     14  C   UNL     1     -61.070 -53.488 -24.914  0.00  0.00    +0.000 C 
BRANCH  13  15
ATOM     15  C   UNL     1     -60.147 -55.933 -24.764  0.00  0.00    +0.000 C 
ATOM     16  C   UNL     1     -59.919 -56.517 -23.398  0.00  0.00    +0.000 C 
ATOM     17  C   UNL     1     -59.799 -56.733 -25.870  0.00  0.00    +0.000 C 
ATOM     18  C   UNL     1     -59.450 -57.546 -26.967  0.00  0.00    +0.000 C 
ATOM     19  C   UNL     1     -60.007 -57.174 -28.310  0.00  0.00    +0.000 C 
ATOM     20  C   UNL     1     -58.599 -58.661 -26.896  0.00  0.00    +0.000 C 
ATOM     21  C   UNL     1     -57.813 -59.682 -26.834  0.00  0.00    +0.000 C 
ATOM     22  C   UNL     1     -58.382 -61.030 -26.516  0.00  0.00    +0.000 C 
ATOM     23  C   UNL     1     -56.335 -59.460 -26.740  0.00  0.00    +0.000 C 
ENDBRANCH  13  15
ENDBRANCH  11  14
ENDBRANCH   6  10
BRANCH   3  24
ATOM     24  O   UNL     1     -64.873 -48.431 -26.208  0.00  0.00    +0.000 OA
ATOM     25  H   UNL     1     -65.348 -49.250 -25.985  0.00  0.00    +0.000 HD
ENDBRANCH   3  24
BRANCH   3  26
ATOM     26  C   UNL     1     -64.682 -48.875 -28.516  0.00  0.00    +0.000 C 
ATOM     27  C   UNL     1     -65.426 -48.979 -29.850  0.00  0.00    +0.000 C 
BRANCH  27  28
ATOM     28  C   UNL     1     -66.173 -49.080 -31.183  0.00  0.00    +0.000 C 
ATOM     29  C   UNL     1     -66.918 -49.184 -32.517  0.00  0.00    +0.000 C 
BRANCH  29  31
ATOM     30  O   UNL     1     -68.788 -48.979 -33.904  0.00  0.00    +0.000 OA
ATOM     31  C   UNL     1     -67.616 -49.282 -33.763  0.00  0.00    +0.000 C 
BRANCH  31  32
ATOM     32  O   UNL     1     -66.862 -49.742 -34.778  0.00  0.00    +0.000 OA
ATOM     33  H   UNL     1     -65.985 -49.885 -34.367  0.00  0.00    +0.000 HD
ENDBRANCH  31  32
ENDBRANCH  29  31
ENDBRANCH  27  28
ENDBRANCH   3  26
TORSDOF 8
ENDMDL
MODEL 9
REMARK VINA RESULT:      -5.3     23.857     29.873
REMARK  Name = 122178712_SalternamideA.pdbqt.pdb
REMARK  8 active torsions:
REMARK  status: ('A' for Active; 'I' for Inactive)
REMARK    1  A    between atoms: C_3  and  O_24
REMARK    2  A    between atoms: C_3  and  C_26
REMARK    3  A    between atoms: C_6  and  N_10
REMARK    4  A    between atoms: C_11  and  C_14
REMARK    5  A    between atoms: C_13  and  C_15
REMARK    6  A    between atoms: C_27  and  C_28
REMARK    7  A    between atoms: C_29  and  C_31
REMARK    8  A    between atoms: C_31  and  O_32
REMARK                            x       y       z     vdW  Elec       q    Type
REMARK                         _______ _______ _______ _____ _____    ______ ____
ROOT
ATOM      1 CL   UNL     1     -51.321 -66.669 -72.781  0.00  0.00    +0.000 Cl
ATOM      2  O   UNL     1     -50.756 -64.986 -75.387  0.00  0.00    +0.000 OA
ATOM      3  C   UNL     1     -53.718 -63.379 -72.703  0.00  0.00    +0.000 C 
ATOM      4  C   UNL     1     -53.162 -62.859 -73.963  0.00  0.00    +0.000 C 
ATOM      5  C   UNL     1     -52.948 -64.631 -72.629  0.00  0.00    +0.000 C 
ATOM      6  C   UNL     1     -52.298 -63.213 -74.871  0.00  0.00    +0.000 C 
ATOM      7  C   UNL     1     -52.055 -65.250 -73.345  0.00  0.00    +0.000 C 
ATOM      8  C   UNL     1     -51.603 -64.556 -74.615  0.00  0.00    +0.000 C 
ENDROOT
BRANCH   6  10
ATOM      9  O   UNL     1     -50.530 -60.899 -75.125  0.00  0.00    +0.000 OA
ATOM     10  N   UNL     1     -51.965 -62.503 -75.995  0.00  0.00    +0.000 N 
ATOM     11  C   UNL     1     -51.125 -61.419 -76.058  0.00  0.00    +0.000 C 
ATOM     12  H   UNL     1     -52.398 -62.828 -76.857  0.00  0.00    +0.000 HD
BRANCH  11  14
ATOM     13  C   UNL     1     -50.804 -60.393 -78.475  0.00  0.00    +0.000 C 
ATOM     14  C   UNL     1     -50.950 -60.866 -77.380  0.00  0.00    +0.000 C 
BRANCH  13  15
ATOM     15  C   UNL     1     -50.625 -59.831 -79.763  0.00  0.00    +0.000 C 
ATOM     16  C   UNL     1     -50.287 -60.755 -80.898  0.00  0.00    +0.000 C 
ATOM     17  C   UNL     1     -50.691 -58.454 -80.054  0.00  0.00    +0.000 C 
ATOM     18  C   UNL     1     -50.757 -57.080 -80.361  0.00  0.00    +0.000 C 
ATOM     19  C   UNL     1     -51.455 -56.184 -79.381  0.00  0.00    +0.000 C 
ATOM     20  C   UNL     1     -50.195 -56.489 -81.505  0.00  0.00    +0.000 C 
ATOM     21  C   UNL     1     -49.674 -55.945 -82.551  0.00  0.00    +0.000 C 
ATOM     22  C   UNL     1     -50.474 -55.866 -83.815  0.00  0.00    +0.000 C 
ATOM     23  C   UNL     1     -48.196 -55.713 -82.595  0.00  0.00    +0.000 C 
ENDBRANCH  13  15
ENDBRANCH  11  14
ENDBRANCH   6  10
BRANCH   3  24
ATOM     24  O   UNL     1     -55.085 -63.684 -72.887  0.00  0.00    +0.000 OA
ATOM     25  H   UNL     1     -55.574 -63.083 -72.298  0.00  0.00    +0.000 HD
ENDBRANCH   3  24
BRANCH   3  26
ATOM     26  C   UNL     1     -53.540 -62.497 -71.557  0.00  0.00    +0.000 C 
ATOM     27  C   UNL     1     -53.360 -61.569 -70.352  0.00  0.00    +0.000 C 
BRANCH  27  28
ATOM     28  C   UNL     1     -53.183 -60.640 -69.147  0.00  0.00    +0.000 C 
ATOM     29  C   UNL     1     -53.004 -59.710 -67.944  0.00  0.00    +0.000 C 
BRANCH  29  31
ATOM     30  O   UNL     1     -53.221 -59.113 -65.695  0.00  0.00    +0.000 OA
ATOM     31  C   UNL     1     -52.838 -58.840 -66.819  0.00  0.00    +0.000 C 
BRANCH  31  32
ATOM     32  O   UNL     1     -52.218 -57.682 -67.110  0.00  0.00    +0.000 OA
ATOM     33  H   UNL     1     -52.931 -57.128 -67.490  0.00  0.00    +0.000 HD
ENDBRANCH  31  32
ENDBRANCH  29  31
ENDBRANCH  27  28
ENDBRANCH   3  26
TORSDOF 8
ENDMDL
