MODEL 1
REMARK VINA RESULT:      -6.0      0.000      0.000
REMARK  Name = 135403648_CalciumFolinate.pdbqt.pdb
REMARK  10 active torsions:
REMARK  status: ('A' for Active; 'I' for Inactive)
REMARK    1  A    between atoms: N_1  and  C_3
REMARK    2  A    between atoms: N_1  and  C_24
REMARK    3  A    between atoms: C_6  and  C_11
REMARK    4  A    between atoms: CA_13  and  C_15
REMARK    5  A    between atoms: CA_13  and  CB_18
REMARK    6  A    between atoms: C_15  and  O_16
REMARK    7  A    between atoms: CG_19  and  CD_21
REMARK    8  A    between atoms: CD_21  and  OE1_22
REMARK    9  A    between atoms: C_24  and  C_32
REMARK   10  A    between atoms: N_27  and  C_37
REMARK                            x       y       z     vdW  Elec       q    Type
REMARK                         _______ _______ _______ _____ _____    ______ ____
ROOT
ATOM      1  N   UNL     1     -65.936 -61.092 -76.455  0.00  0.00    +0.000 N 
ATOM      2  H   UNL     1     -66.884 -61.016 -76.820  0.00  0.00    +0.000 HD
ENDROOT
BRANCH   1   3
ATOM      3  C   UNL     1     -65.007 -60.362 -77.226  0.00  0.00    +0.000 A 
ATOM      4  C   UNL     1     -65.404 -59.853 -78.467  0.00  0.00    +0.000 A 
ATOM      5  C   UNL     1     -63.653 -60.279 -76.881  0.00  0.00    +0.000 A 
ATOM      6  C   UNL     1     -63.156 -59.100 -78.930  0.00  0.00    +0.000 A 
ATOM      7  C   UNL     1     -64.492 -59.214 -79.306  0.00  0.00    +0.000 A 
ATOM      8  C   UNL     1     -62.737 -59.641 -77.713  0.00  0.00    +0.000 A 
BRANCH   6  11
ATOM      9  O   UNL     1     -61.279 -59.104 -80.317  0.00  0.00    +0.000 OA
ATOM     10  N   UNL     1     -62.282 -57.055 -79.917  0.00  0.00    +0.000 N 
ATOM     11  C   ACE A   0     -62.150 -58.425 -79.787  0.00  0.00    +0.000 C 
ATOM     12  H   UNL     1     -63.038 -56.578 -79.432  0.00  0.00    +0.000 HD
ATOM     13  CA  UNL     1     -61.476 -56.205 -80.653  0.00  0.00    +0.000 C 
BRANCH  13  15
ATOM     14  OXT UNL     1     -62.629 -54.291 -79.806  0.00  0.00    +0.000 OA
ATOM     15  C   UNL     1     -61.845 -54.770 -80.614  0.00  0.00    +0.000 C 
BRANCH  15  16
ATOM     16  O   UNL     1     -61.243 -54.020 -81.548  0.00  0.00    +0.000 OA
ATOM     17  H   UNL     1     -61.273 -53.106 -81.196  0.00  0.00    +0.000 HD
ENDBRANCH  15  16
ENDBRANCH  13  15
BRANCH  13  18
ATOM     18  CB  UNL     1     -60.364 -56.674 -81.402  0.00  0.00    +0.000 C 
ATOM     19  CG  UNL     1     -59.157 -57.178 -82.201  0.00  0.00    +0.000 C 
BRANCH  19  21
ATOM     20  OE2 UNL     1     -57.135 -56.914 -83.342  0.00  0.00    +0.000 OA
ATOM     21  CD  UNL     1     -58.018 -57.645 -82.932  0.00  0.00    +0.000 C 
BRANCH  21  22
ATOM     22  OE1 UNL     1     -58.014 -58.972 -83.151  0.00  0.00    +0.000 OA
ATOM     23  HE1 UNL     1     -58.603 -59.319 -82.451  0.00  0.00    +0.000 HD
ENDBRANCH  21  22
ENDBRANCH  19  21
ENDBRANCH  13  18
ENDBRANCH   6  11
ENDBRANCH   1   3
BRANCH   1  24
ATOM     24  C   UNL     1     -65.809 -61.070 -75.002  0.00  0.00    +0.000 C 
BRANCH  24  31
ATOM     25  O   UNL     1     -68.968 -60.497 -70.834  0.00  0.00    +0.000 OA
ATOM     26  N   UNL     1     -66.844 -60.966 -72.763  0.00  0.00    +0.000 N 
ATOM     27  N   UNL     1     -64.266 -61.343 -71.453  0.00  0.00    +0.000 N 
ATOM     28  N   UNL     1     -65.279 -60.968 -69.357  0.00  0.00    +0.000 NA
ATOM     29  N   UNL     1     -67.564 -60.708 -69.107  0.00  0.00    +0.000 N 
ATOM     30  N   UNL     1     -66.186 -60.705 -67.263  0.00  0.00    +0.000 N 
ATOM     31  C   UNL     1     -65.728 -61.079 -73.584  0.00  0.00    +0.000 C 
ATOM     32  C   UNL     1     -64.540 -61.224 -72.850  0.00  0.00    +0.000 C 
ATOM     33  C   UNL     1     -66.655 -60.939 -71.354  0.00  0.00    +0.000 A 
ATOM     34  C   UNL     1     -65.439 -61.083 -70.721  0.00  0.00    +0.000 A 
ATOM     35  C   UNL     1     -67.823 -60.704 -70.443  0.00  0.00    +0.000 A 
ATOM     36  C   UNL     1     -66.313 -60.798 -68.607  0.00  0.00    +0.000 A 
ATOM     37  H   UNL     1     -63.463 -60.906 -71.011  0.00  0.00    +0.000 HD
ATOM     38  H   UNL     1     -68.344 -60.503 -68.504  0.00  0.00    +0.000 HD
ATOM     39  H   UNL     1     -65.263 -60.988 -66.945  0.00  0.00    +0.000 HD
ATOM     40  H   UNL     1     -66.928 -61.105 -66.704  0.00  0.00    +0.000 HD
BRANCH  26  42
ATOM     41  O   UNL     1     -69.127 -60.817 -73.833  0.00  0.00    +0.000 OA
ATOM     42  C   UNL     1     -68.062 -60.848 -73.337  0.00  0.00    +0.000 C 
ENDBRANCH  26  42
ENDBRANCH  24  31
ENDBRANCH   1  24
TORSDOF 10
ENDMDL
MODEL 2
REMARK VINA RESULT:      -6.0     39.355     47.591
REMARK  Name = 135403648_CalciumFolinate.pdbqt.pdb
REMARK  10 active torsions:
REMARK  status: ('A' for Active; 'I' for Inactive)
REMARK    1  A    between atoms: N_1  and  C_3
REMARK    2  A    between atoms: N_1  and  C_24
REMARK    3  A    between atoms: C_6  and  C_11
REMARK    4  A    between atoms: CA_13  and  C_15
REMARK    5  A    between atoms: CA_13  and  CB_18
REMARK    6  A    between atoms: C_15  and  O_16
REMARK    7  A    between atoms: CG_19  and  CD_21
REMARK    8  A    between atoms: CD_21  and  OE1_22
REMARK    9  A    between atoms: C_24  and  C_32
REMARK   10  A    between atoms: N_27  and  C_37
REMARK                            x       y       z     vdW  Elec       q    Type
REMARK                         _______ _______ _______ _____ _____    ______ ____
ROOT
ATOM      1  N   UNL     1     -70.689 -55.329 -31.676  0.00  0.00    +0.000 N 
ATOM      2  H   UNL     1     -71.275 -54.501 -31.781  0.00  0.00    +0.000 HD
ENDROOT
BRANCH   1   3
ATOM      3  C   UNL     1     -71.050 -56.097 -30.548  0.00  0.00    +0.000 A 
ATOM      4  C   UNL     1     -70.848 -55.566 -29.270  0.00  0.00    +0.000 A 
ATOM      5  C   UNL     1     -71.436 -57.438 -30.652  0.00  0.00    +0.000 A 
ATOM      6  C   UNL     1     -71.521 -57.648 -28.248  0.00  0.00    +0.000 A 
ATOM      7  C   UNL     1     -71.096 -56.328 -28.129  0.00  0.00    +0.000 A 
ATOM      8  C   UNL     1     -71.686 -58.205 -29.517  0.00  0.00    +0.000 A 
BRANCH   6  11
ATOM      9  O   UNL     1     -71.636 -59.707 -27.153  0.00  0.00    +0.000 OA
ATOM     10  N   UNL     1     -72.236 -57.835 -25.929  0.00  0.00    +0.000 N 
ATOM     11  C   ACE A   0     -71.801 -58.496 -27.062  0.00  0.00    +0.000 C 
ATOM     12  H   UNL     1     -72.347 -56.824 -25.953  0.00  0.00    +0.000 HD
ATOM     13  CA  UNL     1     -72.562 -58.397 -24.708  0.00  0.00    +0.000 C 
BRANCH  13  15
ATOM     14  OXT UNL     1     -73.673 -56.448 -23.884  0.00  0.00    +0.000 OA
ATOM     15  C   UNL     1     -73.007 -57.448 -23.659  0.00  0.00    +0.000 C 
BRANCH  15  16
ATOM     16  O   UNL     1     -72.618 -57.777 -22.418  0.00  0.00    +0.000 OA
ATOM     17  H   UNL     1     -73.437 -58.071 -21.967  0.00  0.00    +0.000 HD
ENDBRANCH  15  16
ENDBRANCH  13  15
BRANCH  13  18
ATOM     18  CB  UNL     1     -72.476 -59.794 -24.470  0.00  0.00    +0.000 C 
ATOM     19  CG  UNL     1     -72.395 -61.304 -24.215  0.00  0.00    +0.000 C 
BRANCH  19  21
ATOM     20  OE2 UNL     1     -72.375 -63.218 -22.874  0.00  0.00    +0.000 OA
ATOM     21  CD  UNL     1     -72.337 -62.715 -23.983  0.00  0.00    +0.000 C 
BRANCH  21  22
ATOM     22  OE1 UNL     1     -72.215 -63.450 -25.103  0.00  0.00    +0.000 OA
ATOM     23  HE1 UNL     1     -72.726 -64.260 -24.899  0.00  0.00    +0.000 HD
ENDBRANCH  21  22
ENDBRANCH  19  21
ENDBRANCH  13  18
ENDBRANCH   6  11
ENDBRANCH   1   3
BRANCH   1  24
ATOM     24  C   UNL     1     -70.338 -56.021 -32.909  0.00  0.00    +0.000 C 
BRANCH  24  31
ATOM     25  O   UNL     1     -66.611 -59.220 -34.796  0.00  0.00    +0.000 OA
ATOM     26  N   UNL     1     -68.917 -57.539 -34.241  0.00  0.00    +0.000 N 
ATOM     27  N   UNL     1     -70.511 -57.076 -36.640  0.00  0.00    +0.000 N 
ATOM     28  N   UNL     1     -68.962 -58.321 -37.908  0.00  0.00    +0.000 NA
ATOM     29  N   UNL     1     -67.186 -59.448 -36.945  0.00  0.00    +0.000 N 
ATOM     30  N   UNL     1     -67.561 -59.591 -39.212  0.00  0.00    +0.000 N 
ATOM     31  C   UNL     1     -69.981 -56.650 -34.132  0.00  0.00    +0.000 C 
ATOM     32  C   UNL     1     -70.658 -56.478 -35.350  0.00  0.00    +0.000 C 
ATOM     33  C   UNL     1     -68.611 -58.082 -35.520  0.00  0.00    +0.000 A 
ATOM     34  C   UNL     1     -69.335 -57.847 -36.668  0.00  0.00    +0.000 A 
ATOM     35  C   UNL     1     -67.402 -58.953 -35.696  0.00  0.00    +0.000 A 
ATOM     36  C   UNL     1     -67.935 -59.093 -38.010  0.00  0.00    +0.000 A 
ATOM     37  H   UNL     1     -70.619 -56.552 -37.504  0.00  0.00    +0.000 HD
ATOM     38  H   UNL     1     -66.347 -59.992 -37.066  0.00  0.00    +0.000 HD
ATOM     39  H   UNL     1     -68.277 -59.460 -39.921  0.00  0.00    +0.000 HD
ATOM     40  H   UNL     1     -67.175 -60.526 -39.219  0.00  0.00    +0.000 HD
BRANCH  26  42
ATOM     41  O   UNL     1     -67.570 -57.999 -32.155  0.00  0.00    +0.000 OA
ATOM     42  C   UNL     1     -68.192 -57.822 -33.137  0.00  0.00    +0.000 C 
ENDBRANCH  26  42
ENDBRANCH  24  31
ENDBRANCH   1  24
TORSDOF 10
ENDMDL
MODEL 3
REMARK VINA RESULT:      -5.9     24.560     31.642
REMARK  Name = 135403648_CalciumFolinate.pdbqt.pdb
REMARK  10 active torsions:
REMARK  status: ('A' for Active; 'I' for Inactive)
REMARK    1  A    between atoms: N_1  and  C_3
REMARK    2  A    between atoms: N_1  and  C_24
REMARK    3  A    between atoms: C_6  and  C_11
REMARK    4  A    between atoms: CA_13  and  C_15
REMARK    5  A    between atoms: CA_13  and  CB_18
REMARK    6  A    between atoms: C_15  and  O_16
REMARK    7  A    between atoms: CG_19  and  CD_21
REMARK    8  A    between atoms: CD_21  and  OE1_22
REMARK    9  A    between atoms: C_24  and  C_32
REMARK   10  A    between atoms: N_27  and  C_37
REMARK                            x       y       z     vdW  Elec       q    Type
REMARK                         _______ _______ _______ _____ _____    ______ ____
ROOT
ATOM      1  N   UNL     1     -38.998 -63.680 -94.306  0.00  0.00    +0.000 N 
ATOM      2  H   UNL     1     -38.246 -63.754 -93.622  0.00  0.00    +0.000 HD
ENDROOT
BRANCH   1   3
ATOM      3  C   UNL     1     -38.969 -64.733 -95.244  0.00  0.00    +0.000 A 
ATOM      4  C   UNL     1     -39.420 -66.000 -94.861  0.00  0.00    +0.000 A 
ATOM      5  C   UNL     1     -38.342 -64.605 -96.489  0.00  0.00    +0.000 A 
ATOM      6  C   UNL     1     -38.727 -66.939 -96.975  0.00  0.00    +0.000 A 
ATOM      7  C   UNL     1     -39.315 -67.091 -95.722  0.00  0.00    +0.000 A 
ATOM      8  C   UNL     1     -38.235 -65.690 -97.356  0.00  0.00    +0.000 A 
BRANCH   6  11
ATOM      9  O   UNL     1     -39.491 -68.253 -98.748  0.00  0.00    +0.000 OA
ATOM     10  N   UNL     1     -37.457 -68.840 -97.807  0.00  0.00    +0.000 N 
ATOM     11  C   ACE A   0     -38.598 -68.070 -97.928  0.00  0.00    +0.000 C 
ATOM     12  H   UNL     1     -36.773 -68.611 -97.090  0.00  0.00    +0.000 HD
ATOM     13  CA  UNL     1     -37.110 -69.942 -98.570  0.00  0.00    +0.000 C 
BRANCH  13  15
ATOM     14  OXT UNL     1     -35.197 -71.315 -98.978  0.00  0.00    +0.000 OA
ATOM     15  C   UNL     1     -35.821 -70.588 -98.220  0.00  0.00    +0.000 C 
BRANCH  15  16
ATOM     16  O   UNL     1     -35.382 -70.307 -96.984  0.00  0.00    +0.000 OA
ATOM     17  H   UNL     1     -36.102 -69.784 -96.574  0.00  0.00    +0.000 HD
ENDBRANCH  15  16
ENDBRANCH  13  15
BRANCH  13  18
ATOM     18  CB  UNL     1     -37.931 -70.425 -99.622  0.00  0.00    +0.000 C 
ATOM     19  CG  UNL     1     -38.821 -70.936-100.761  0.00  0.00    +0.000 C 
BRANCH  19  21
ATOM     20  OE2 UNL     1     -39.293 -72.206-102.665  0.00  0.00    +0.000 OA
ATOM     21  CD  UNL     1     -39.653 -71.395-101.831  0.00  0.00    +0.000 C 
BRANCH  21  22
ATOM     22  OE1 UNL     1     -40.876 -70.834-101.854  0.00  0.00    +0.000 OA
ATOM     23  HE1 UNL     1     -41.474 -71.589-101.683  0.00  0.00    +0.000 HD
ENDBRANCH  21  22
ENDBRANCH  19  21
ENDBRANCH  13  18
ENDBRANCH   6  11
ENDBRANCH   1   3
BRANCH   1  24
ATOM     24  C   UNL     1     -40.288 -63.240 -93.788  0.00  0.00    +0.000 C 
BRANCH  24  31
ATOM     25  O   UNL     1     -42.871 -63.339 -89.205  0.00  0.00    +0.000 OA
ATOM     26  N   UNL     1     -41.867 -62.972 -91.909  0.00  0.00    +0.000 N 
ATOM     27  N   UNL     1     -43.882 -61.782 -93.651  0.00  0.00    +0.000 N 
ATOM     28  N   UNL     1     -45.429 -61.803 -91.872  0.00  0.00    +0.000 NA
ATOM     29  N   UNL     1     -44.846 -62.429 -89.723  0.00  0.00    +0.000 N 
ATOM     30  N   UNL     1     -46.981 -61.697 -90.181  0.00  0.00    +0.000 N 
ATOM     31  C   UNL     1     -41.549 -62.857 -93.257  0.00  0.00    +0.000 C 
ATOM     32  C   UNL     1     -42.599 -62.303 -94.007  0.00  0.00    +0.000 C 
ATOM     33  C   UNL     1     -43.173 -62.604 -91.482  0.00  0.00    +0.000 A 
ATOM     34  C   UNL     1     -44.146 -62.070 -92.299  0.00  0.00    +0.000 A 
ATOM     35  C   UNL     1     -43.587 -62.822 -90.057  0.00  0.00    +0.000 A 
ATOM     36  C   UNL     1     -45.735 -61.974 -90.632  0.00  0.00    +0.000 A 
ATOM     37  H   UNL     1     -44.711 -61.929 -94.218  0.00  0.00    +0.000 HD
ATOM     38  H   UNL     1     -45.134 -62.622 -88.777  0.00  0.00    +0.000 HD
ATOM     39  H   UNL     1     -47.525 -61.169 -90.859  0.00  0.00    +0.000 HD
ATOM     40  H   UNL     1     -47.055 -61.320 -89.246  0.00  0.00    +0.000 HD
BRANCH  26  42
ATOM     41  O   UNL     1     -40.085 -63.908 -90.384  0.00  0.00    +0.000 OA
ATOM     42  C   UNL     1     -40.936 -63.465 -91.063  0.00  0.00    +0.000 C 
ENDBRANCH  26  42
ENDBRANCH  24  31
ENDBRANCH   1  24
TORSDOF 10
ENDMDL
MODEL 4
REMARK VINA RESULT:      -5.8      7.006      9.304
REMARK  Name = 135403648_CalciumFolinate.pdbqt.pdb
REMARK  10 active torsions:
REMARK  status: ('A' for Active; 'I' for Inactive)
REMARK    1  A    between atoms: N_1  and  C_3
REMARK    2  A    between atoms: N_1  and  C_24
REMARK    3  A    between atoms: C_6  and  C_11
REMARK    4  A    between atoms: CA_13  and  C_15
REMARK    5  A    between atoms: CA_13  and  CB_18
REMARK    6  A    between atoms: C_15  and  O_16
REMARK    7  A    between atoms: CG_19  and  CD_21
REMARK    8  A    between atoms: CD_21  and  OE1_22
REMARK    9  A    between atoms: C_24  and  C_32
REMARK   10  A    between atoms: N_27  and  C_37
REMARK                            x       y       z     vdW  Elec       q    Type
REMARK                         _______ _______ _______ _____ _____    ______ ____
ROOT
ATOM      1  N   UNL     1     -64.998 -64.283 -69.457  0.00  0.00    +0.000 N 
ATOM      2  H   UNL     1     -65.416 -65.190 -69.253  0.00  0.00    +0.000 HD
ENDROOT
BRANCH   1   3
ATOM      3  C   UNL     1     -63.717 -64.405 -70.036  0.00  0.00    +0.000 A 
ATOM      4  C   UNL     1     -63.584 -65.065 -71.262  0.00  0.00    +0.000 A 
ATOM      5  C   UNL     1     -62.551 -64.051 -69.348  0.00  0.00    +0.000 A 
ATOM      6  C   UNL     1     -61.178 -64.901 -71.144  0.00  0.00    +0.000 A 
ATOM      7  C   UNL     1     -62.328 -65.297 -71.821  0.00  0.00    +0.000 A 
ATOM      8  C   UNL     1     -61.292 -64.280 -69.900  0.00  0.00    +0.000 A 
BRANCH   6  11
ATOM      9  O   UNL     1     -58.897 -64.424 -71.297  0.00  0.00    +0.000 OA
ATOM     10  N   UNL     1     -59.707 -66.120 -72.652  0.00  0.00    +0.000 N 
ATOM     11  C   ACE A   0     -59.820 -65.123 -71.701  0.00  0.00    +0.000 C 
ATOM     12  H   UNL     1     -60.534 -66.644 -72.927  0.00  0.00    +0.000 HD
ATOM     13  CA  UNL     1     -58.558 -66.513 -73.316  0.00  0.00    +0.000 C 
BRANCH  13  15
ATOM     14  OXT UNL     1     -59.744 -67.800 -74.944  0.00  0.00    +0.000 OA
ATOM     15  C   UNL     1     -58.725 -67.614 -74.295  0.00  0.00    +0.000 C 
BRANCH  15  16
ATOM     16  O   UNL     1     -57.650 -68.407 -74.421  0.00  0.00    +0.000 OA
ATOM     17  H   UNL     1     -56.943 -67.820 -74.762  0.00  0.00    +0.000 HD
ENDBRANCH  15  16
ENDBRANCH  13  15
BRANCH  13  18
ATOM     18  CB  UNL     1     -57.298 -65.904 -73.076  0.00  0.00    +0.000 C 
ATOM     19  CG  UNL     1     -55.932 -65.257 -72.823  0.00  0.00    +0.000 C 
BRANCH  19  21
ATOM     20  OE2 UNL     1     -53.658 -65.304 -72.285  0.00  0.00    +0.000 OA
ATOM     21  CD  UNL     1     -54.648 -64.666 -72.596  0.00  0.00    +0.000 C 
BRANCH  21  22
ATOM     22  OE1 UNL     1     -54.628 -63.328 -72.734  0.00  0.00    +0.000 OA
ATOM     23  HE1 UNL     1     -53.904 -63.050 -72.137  0.00  0.00    +0.000 HD
ENDBRANCH  21  22
ENDBRANCH  19  21
ENDBRANCH  13  18
ENDBRANCH   6  11
ENDBRANCH   1   3
BRANCH   1  24
ATOM     24  C   UNL     1     -65.905 -63.266 -69.975  0.00  0.00    +0.000 C 
BRANCH  24  31
ATOM     25  O   UNL     1     -66.243 -59.860 -73.971  0.00  0.00    +0.000 OA
ATOM     26  N   UNL     1     -66.570 -61.574 -71.645  0.00  0.00    +0.000 N 
ATOM     27  N   UNL     1     -68.956 -60.872 -70.120  0.00  0.00    +0.000 N 
ATOM     28  N   UNL     1     -69.385 -59.097 -71.611  0.00  0.00    +0.000 NA
ATOM     29  N   UNL     1     -68.130 -58.747 -73.523  0.00  0.00    +0.000 N 
ATOM     30  N   UNL     1     -69.938 -57.400 -73.058  0.00  0.00    +0.000 N 
ATOM     31  C   UNL     1     -66.772 -62.242 -70.443  0.00  0.00    +0.000 C 
ATOM     32  C   UNL     1     -67.928 -61.805 -69.778  0.00  0.00    +0.000 C 
ATOM     33  C   UNL     1     -67.469 -60.531 -72.005  0.00  0.00    +0.000 A 
ATOM     34  C   UNL     1     -68.582 -60.167 -71.279  0.00  0.00    +0.000 A 
ATOM     35  C   UNL     1     -67.216 -59.714 -73.237  0.00  0.00    +0.000 A 
ATOM     36  C   UNL     1     -69.152 -58.440 -72.695  0.00  0.00    +0.000 A 
ATOM     37  H   UNL     1     -69.379 -60.247 -69.440  0.00  0.00    +0.000 HD
ATOM     38  H   UNL     1     -67.928 -58.171 -74.325  0.00  0.00    +0.000 HD
ATOM     39  H   UNL     1     -70.796 -57.360 -72.513  0.00  0.00    +0.000 HD
ATOM     40  H   UNL     1     -70.102 -57.273 -74.048  0.00  0.00    +0.000 HD
BRANCH  26  42
ATOM     41  O   UNL     1     -64.547 -62.228 -73.007  0.00  0.00    +0.000 OA
ATOM     42  C   UNL     1     -65.507 -61.914 -72.406  0.00  0.00    +0.000 C 
ENDBRANCH  26  42
ENDBRANCH  24  31
ENDBRANCH   1  24
TORSDOF 10
ENDMDL
MODEL 5
REMARK VINA RESULT:      -5.7     51.719     58.014
REMARK  Name = 135403648_CalciumFolinate.pdbqt.pdb
REMARK  10 active torsions:
REMARK  status: ('A' for Active; 'I' for Inactive)
REMARK    1  A    between atoms: N_1  and  C_3
REMARK    2  A    between atoms: N_1  and  C_24
REMARK    3  A    between atoms: C_6  and  C_11
REMARK    4  A    between atoms: CA_13  and  C_15
REMARK    5  A    between atoms: CA_13  and  CB_18
REMARK    6  A    between atoms: C_15  and  O_16
REMARK    7  A    between atoms: CG_19  and  CD_21
REMARK    8  A    between atoms: CD_21  and  OE1_22
REMARK    9  A    between atoms: C_24  and  C_32
REMARK   10  A    between atoms: N_27  and  C_37
REMARK                            x       y       z     vdW  Elec       q    Type
REMARK                         _______ _______ _______ _____ _____    ______ ____
ROOT
ATOM      1  N   UNL     1     -62.705 -54.785 -16.115  0.00  0.00    +0.000 N 
ATOM      2  H   UNL     1     -61.892 -54.485 -15.579  0.00  0.00    +0.000 HD
ENDROOT
BRANCH   1   3
ATOM      3  C   UNL     1     -62.563 -54.516 -17.493  0.00  0.00    +0.000 A 
ATOM      4  C   UNL     1     -61.368 -54.858 -18.133  0.00  0.00    +0.000 A 
ATOM      5  C   UNL     1     -63.500 -53.758 -18.205  0.00  0.00    +0.000 A 
ATOM      6  C   UNL     1     -62.106 -53.803 -20.177  0.00  0.00    +0.000 A 
ATOM      7  C   UNL     1     -61.145 -54.520 -19.468  0.00  0.00    +0.000 A 
ATOM      8  C   UNL     1     -63.285 -53.417 -19.538  0.00  0.00    +0.000 A 
BRANCH   6  11
ATOM      9  O   UNL     1     -62.131 -52.264 -21.933  0.00  0.00    +0.000 OA
ATOM     10  N   UNL     1     -61.503 -54.433 -22.448  0.00  0.00    +0.000 N 
ATOM     11  C   ACE A   0     -61.915 -53.424 -21.599  0.00  0.00    +0.000 C 
ATOM     12  H   UNL     1     -61.354 -55.368 -22.077  0.00  0.00    +0.000 HD
ATOM     13  CA  UNL     1     -61.260 -54.334 -23.807  0.00  0.00    +0.000 C 
BRANCH  13  15
ATOM     14  OXT UNL     1     -60.364 -56.548 -23.888  0.00  0.00    +0.000 OA
ATOM     15  C   UNL     1     -60.829 -55.584 -24.479  0.00  0.00    +0.000 C 
BRANCH  15  16
ATOM     16  O   UNL     1     -60.991 -55.577 -25.810  0.00  0.00    +0.000 OA
ATOM     17  H   UNL     1     -60.888 -54.638 -26.072  0.00  0.00    +0.000 HD
ENDBRANCH  15  16
ENDBRANCH  13  15
BRANCH  13  18
ATOM     18  CB  UNL     1     -61.412 -53.113 -24.517  0.00  0.00    +0.000 C 
ATOM     19  CG  UNL     1     -61.587 -51.799 -25.286  0.00  0.00    +0.000 C 
BRANCH  19  21
ATOM     20  OE2 UNL     1     -62.644 -49.769 -25.758  0.00  0.00    +0.000 OA
ATOM     21  CD  UNL     1     -61.768 -50.577 -26.009  0.00  0.00    +0.000 C 
BRANCH  21  22
ATOM     22  OE1 UNL     1     -60.894 -50.402 -27.017  0.00  0.00    +0.000 OA
ATOM     23  HE1 UNL     1     -60.541 -49.503 -26.855  0.00  0.00    +0.000 HD
ENDBRANCH  21  22
ENDBRANCH  19  21
ENDBRANCH  13  18
ENDBRANCH   6  11
ENDBRANCH   1   3
BRANCH   1  24
ATOM     24  C   UNL     1     -63.306 -56.049 -15.708  0.00  0.00    +0.000 C 
BRANCH  24  31
ATOM     25  O   UNL     1     -64.730 -58.440 -11.243  0.00  0.00    +0.000 OA
ATOM     26  N   UNL     1     -64.186 -57.551 -13.957  0.00  0.00    +0.000 N 
ATOM     27  N   UNL     1     -64.754 -59.644 -15.908  0.00  0.00    +0.000 N 
ATOM     28  N   UNL     1     -65.327 -61.117 -14.158  0.00  0.00    +0.000 NA
ATOM     29  N   UNL     1     -65.435 -60.441 -11.948  0.00  0.00    +0.000 N 
ATOM     30  N   UNL     1     -65.991 -62.598 -12.532  0.00  0.00    +0.000 N 
ATOM     31  C   UNL     1     -63.851 -57.290 -15.281  0.00  0.00    +0.000 C 
ATOM     32  C   UNL     1     -64.137 -58.374 -16.126  0.00  0.00    +0.000 C 
ATOM     33  C   UNL     1     -64.682 -58.841 -13.621  0.00  0.00    +0.000 A 
ATOM     34  C   UNL     1     -64.925 -59.851 -14.526  0.00  0.00    +0.000 A 
ATOM     35  C   UNL     1     -64.945 -59.194 -12.187  0.00  0.00    +0.000 A 
ATOM     36  C   UNL     1     -65.573 -61.370 -12.918  0.00  0.00    +0.000 A 
ATOM     37  H   UNL     1     -64.435 -60.495 -16.361  0.00  0.00    +0.000 HD
ATOM     38  H   UNL     1     -65.564 -60.688 -10.980  0.00  0.00    +0.000 HD
ATOM     39  H   UNL     1     -66.272 -63.173 -13.322  0.00  0.00    +0.000 HD
ATOM     40  H   UNL     1     -66.654 -62.636 -11.769  0.00  0.00    +0.000 HD
BRANCH  26  42
ATOM     41  O   UNL     1     -63.775 -55.786 -12.199  0.00  0.00    +0.000 OA
ATOM     42  C   UNL     1     -63.990 -56.583 -13.035  0.00  0.00    +0.000 C 
ENDBRANCH  26  42
ENDBRANCH  24  31
ENDBRANCH   1  24
TORSDOF 10
ENDMDL
MODEL 6
REMARK VINA RESULT:      -5.7     56.900     59.905
REMARK  Name = 135403648_CalciumFolinate.pdbqt.pdb
REMARK  10 active torsions:
REMARK  status: ('A' for Active; 'I' for Inactive)
REMARK    1  A    between atoms: N_1  and  C_3
REMARK    2  A    between atoms: N_1  and  C_24
REMARK    3  A    between atoms: C_6  and  C_11
REMARK    4  A    between atoms: CA_13  and  C_15
REMARK    5  A    between atoms: CA_13  and  CB_18
REMARK    6  A    between atoms: C_15  and  O_16
REMARK    7  A    between atoms: CG_19  and  CD_21
REMARK    8  A    between atoms: CD_21  and  OE1_22
REMARK    9  A    between atoms: C_24  and  C_32
REMARK   10  A    between atoms: N_27  and  C_37
REMARK                            x       y       z     vdW  Elec       q    Type
REMARK                         _______ _______ _______ _____ _____    ______ ____
ROOT
ATOM      1  N   UNL     1     -62.834 -55.543 -16.806  0.00  0.00    +0.000 N 
ATOM      2  H   UNL     1     -61.999 -55.666 -17.378  0.00  0.00    +0.000 HD
ENDROOT
BRANCH   1   3
ATOM      3  C   UNL     1     -63.765 -54.667 -17.404  0.00  0.00    +0.000 A 
ATOM      4  C   UNL     1     -63.392 -53.955 -18.548  0.00  0.00    +0.000 A 
ATOM      5  C   UNL     1     -64.984 -54.347 -16.796  0.00  0.00    +0.000 A 
ATOM      6  C   UNL     1     -65.472 -52.727 -18.520  0.00  0.00    +0.000 A 
ATOM      7  C   UNL     1     -64.242 -53.004 -19.112  0.00  0.00    +0.000 A 
ATOM      8  C   UNL     1     -65.840 -53.400 -17.354  0.00  0.00    +0.000 A 
BRANCH   6  11
ATOM      9  O   UNL     1     -67.595 -52.029 -19.193  0.00  0.00    +0.000 OA
ATOM     10  N   UNL     1     -65.862 -50.515 -19.455  0.00  0.00    +0.000 N 
ATOM     11  C   ACE A   0     -66.412 -51.728 -19.086  0.00  0.00    +0.000 C 
ATOM     12  H   UNL     1     -64.864 -50.361 -19.331  0.00  0.00    +0.000 HD
ATOM     13  CA  UNL     1     -66.524 -49.431 -20.004  0.00  0.00    +0.000 C 
BRANCH  13  15
ATOM     14  OXT UNL     1     -65.272 -47.468 -19.465  0.00  0.00    +0.000 OA
ATOM     15  C   UNL     1     -65.682 -48.249 -20.311  0.00  0.00    +0.000 C 
BRANCH  15  16
ATOM     16  O   UNL     1     -65.398 -48.098 -21.613  0.00  0.00    +0.000 OA
ATOM     17  H   UNL     1     -64.761 -48.815 -21.816  0.00  0.00    +0.000 HD
ENDBRANCH  15  16
ENDBRANCH  13  15
BRANCH  13  18
ATOM     18  CB  UNL     1     -67.920 -49.445 -20.259  0.00  0.00    +0.000 C 
ATOM     19  CG  UNL     1     -69.429 -49.473 -20.532  0.00  0.00    +0.000 C 
BRANCH  19  21
ATOM     20  OE2 UNL     1     -71.328 -49.369 -21.891  0.00  0.00    +0.000 OA
ATOM     21  CD  UNL     1     -70.836 -49.517 -20.786  0.00  0.00    +0.000 C 
BRANCH  21  22
ATOM     22  OE1 UNL     1     -71.585 -49.716 -19.686  0.00  0.00    +0.000 OA
ATOM     23  HE1 UNL     1     -71.135 -50.460 -19.237  0.00  0.00    +0.000 HD
ENDBRANCH  21  22
ENDBRANCH  19  21
ENDBRANCH  13  18
ENDBRANCH   6  11
ENDBRANCH   1   3
BRANCH   1  24
ATOM     24  C   UNL     1     -63.330 -56.740 -16.138  0.00  0.00    +0.000 C 
BRANCH  24  31
ATOM     25  O   UNL     1     -64.726 -58.356 -11.330  0.00  0.00    +0.000 OA
ATOM     26  N   UNL     1     -64.192 -57.934 -14.156  0.00  0.00    +0.000 N 
ATOM     27  N   UNL     1     -64.736 -60.333 -15.723  0.00  0.00    +0.000 N 
ATOM     28  N   UNL     1     -65.292 -61.495 -13.748  0.00  0.00    +0.000 NA
ATOM     29  N   UNL     1     -65.408 -60.456 -11.684  0.00  0.00    +0.000 N 
ATOM     30  N   UNL     1     -65.939 -62.686 -11.893  0.00  0.00    +0.000 N 
ATOM     31  C   UNL     1     -63.861 -57.897 -15.506  0.00  0.00    +0.000 C 
ATOM     32  C   UNL     1     -64.134 -59.111 -16.155  0.00  0.00    +0.000 C 
ATOM     33  C   UNL     1     -64.674 -59.153 -13.605  0.00  0.00    +0.000 A 
ATOM     34  C   UNL     1     -64.905 -60.305 -14.326  0.00  0.00    +0.000 A 
ATOM     35  C   UNL     1     -64.932 -59.262 -12.132  0.00  0.00    +0.000 A 
ATOM     36  C   UNL     1     -65.535 -61.537 -12.483  0.00  0.00    +0.000 A 
ATOM     37  H   UNL     1     -64.408 -61.245 -16.026  0.00  0.00    +0.000 HD
ATOM     38  H   UNL     1     -65.534 -60.536 -10.688  0.00  0.00    +0.000 HD
ATOM     39  H   UNL     1     -66.213 -63.390 -12.573  0.00  0.00    +0.000 HD
ATOM     40  H   UNL     1     -66.601 -62.602 -11.133  0.00  0.00    +0.000 HD
BRANCH  26  42
ATOM     41  O   UNL     1     -63.910 -55.829 -12.789  0.00  0.00    +0.000 OA
ATOM     42  C   UNL     1     -64.008 -56.821 -13.412  0.00  0.00    +0.000 C 
ENDBRANCH  26  42
ENDBRANCH  24  31
ENDBRANCH   1  24
TORSDOF 10
ENDMDL
MODEL 7
REMARK VINA RESULT:      -5.7     11.168     12.865
REMARK  Name = 135403648_CalciumFolinate.pdbqt.pdb
REMARK  10 active torsions:
REMARK  status: ('A' for Active; 'I' for Inactive)
REMARK    1  A    between atoms: N_1  and  C_3
REMARK    2  A    between atoms: N_1  and  C_24
REMARK    3  A    between atoms: C_6  and  C_11
REMARK    4  A    between atoms: CA_13  and  C_15
REMARK    5  A    between atoms: CA_13  and  CB_18
REMARK    6  A    between atoms: C_15  and  O_16
REMARK    7  A    between atoms: CG_19  and  CD_21
REMARK    8  A    between atoms: CD_21  and  OE1_22
REMARK    9  A    between atoms: C_24  and  C_32
REMARK   10  A    between atoms: N_27  and  C_37
REMARK                            x       y       z     vdW  Elec       q    Type
REMARK                         _______ _______ _______ _____ _____    ______ ____
ROOT
ATOM      1  N   UNL     1     -50.151 -63.202 -75.157  0.00  0.00    +0.000 N 
ATOM      2  H   UNL     1     -49.435 -63.925 -75.223  0.00  0.00    +0.000 HD
ENDROOT
BRANCH   1   3
ATOM      3  C   UNL     1     -50.202 -62.397 -76.315  0.00  0.00    +0.000 A 
ATOM      4  C   UNL     1     -49.150 -62.458 -77.233  0.00  0.00    +0.000 A 
ATOM      5  C   UNL     1     -51.177 -61.408 -76.492  0.00  0.00    +0.000 A 
ATOM      6  C   UNL     1     -50.110 -60.657 -78.525  0.00  0.00    +0.000 A 
ATOM      7  C   UNL     1     -49.110 -61.607 -78.338  0.00  0.00    +0.000 A 
ATOM      8  C   UNL     1     -51.144 -60.556 -77.594  0.00  0.00    +0.000 A 
BRANCH   6  11
ATOM      9  O   UNL     1     -49.721 -60.151 -80.771  0.00  0.00    +0.000 OA
ATOM     10  N   UNL     1     -50.564 -58.450 -79.444  0.00  0.00    +0.000 N 
ATOM     11  C   ACE A   0     -50.112 -59.733 -79.687  0.00  0.00    +0.000 C 
ATOM     12  H   UNL     1     -50.864 -58.195 -78.506  0.00  0.00    +0.000 HD
ATOM     13  CA  UNL     1     -50.659 -57.413 -80.355  0.00  0.00    +0.000 C 
BRANCH  13  15
ATOM     14  OXT UNL     1     -51.657 -56.003 -78.703  0.00  0.00    +0.000 OA
ATOM     15  C   UNL     1     -51.177 -56.130 -79.820  0.00  0.00    +0.000 C 
BRANCH  15  16
ATOM     16  O   UNL     1     -51.075 -55.098 -80.671  0.00  0.00    +0.000 OA
ATOM     17  H   UNL     1     -50.429 -55.391 -81.346  0.00  0.00    +0.000 HD
ENDBRANCH  15  16
ENDBRANCH  13  15
BRANCH  13  18
ATOM     18  CB  UNL     1     -50.287 -57.563 -81.717  0.00  0.00    +0.000 C 
ATOM     19  CG  UNL     1     -49.887 -57.738 -83.186  0.00  0.00    +0.000 C 
BRANCH  19  21
ATOM     20  OE2 UNL     1     -50.201 -57.545 -85.494  0.00  0.00    +0.000 OA
ATOM     21  CD  UNL     1     -49.518 -57.919 -84.557  0.00  0.00    +0.000 C 
BRANCH  21  22
ATOM     22  OE1 UNL     1     -48.351 -58.564 -84.730  0.00  0.00    +0.000 OA
ATOM     23  HE1 UNL     1     -47.791 -57.902 -85.185  0.00  0.00    +0.000 HD
ENDBRANCH  21  22
ENDBRANCH  19  21
ENDBRANCH  13  18
ENDBRANCH   6  11
ENDBRANCH   1   3
BRANCH   1  24
ATOM     24  C   UNL     1     -51.404 -63.603 -74.528  0.00  0.00    +0.000 C 
BRANCH  24  31
ATOM     25  O   UNL     1     -53.823 -68.108 -73.290  0.00  0.00    +0.000 OA
ATOM     26  N   UNL     1     -52.893 -65.382 -73.683  0.00  0.00    +0.000 N 
ATOM     27  N   UNL     1     -54.881 -63.432 -72.815  0.00  0.00    +0.000 N 
ATOM     28  N   UNL     1     -56.362 -65.186 -72.276  0.00  0.00    +0.000 NA
ATOM     29  N   UNL     1     -55.748 -67.413 -72.390  0.00  0.00    +0.000 N 
ATOM     30  N   UNL     1     -57.842 -66.822 -71.636  0.00  0.00    +0.000 N 
ATOM     31  C   UNL     1     -52.615 -64.042 -73.931  0.00  0.00    +0.000 C 
ATOM     32  C   UNL     1     -53.651 -63.196 -73.503  0.00  0.00    +0.000 C 
ATOM     33  C   UNL     1     -54.154 -65.725 -73.123  0.00  0.00    +0.000 A 
ATOM     34  C   UNL     1     -55.117 -64.817 -72.737  0.00  0.00    +0.000 A 
ATOM     35  C   UNL     1     -54.532 -67.166 -72.948  0.00  0.00    +0.000 A 
ATOM     36  C   UNL     1     -56.635 -66.434 -72.110  0.00  0.00    +0.000 A 
ATOM     37  H   UNL     1     -55.738 -62.934 -73.035  0.00  0.00    +0.000 HD
ATOM     38  H   UNL     1     -56.014 -68.382 -72.320  0.00  0.00    +0.000 HD
ATOM     39  H   UNL     1     -58.372 -66.044 -71.254  0.00  0.00    +0.000 HD
ATOM     40  H   UNL     1     -57.857 -67.635 -71.034  0.00  0.00    +0.000 HD
BRANCH  26  42
ATOM     41  O   UNL     1     -51.197 -67.120 -74.377  0.00  0.00    +0.000 OA
ATOM     42  C   UNL     1     -51.969 -66.308 -74.020  0.00  0.00    +0.000 C 
ENDBRANCH  26  42
ENDBRANCH  24  31
ENDBRANCH   1  24
TORSDOF 10
ENDMDL
MODEL 8
REMARK VINA RESULT:      -5.7     24.420     31.595
REMARK  Name = 135403648_CalciumFolinate.pdbqt.pdb
REMARK  10 active torsions:
REMARK  status: ('A' for Active; 'I' for Inactive)
REMARK    1  A    between atoms: N_1  and  C_3
REMARK    2  A    between atoms: N_1  and  C_24
REMARK    3  A    between atoms: C_6  and  C_11
REMARK    4  A    between atoms: CA_13  and  C_15
REMARK    5  A    between atoms: CA_13  and  CB_18
REMARK    6  A    between atoms: C_15  and  O_16
REMARK    7  A    between atoms: CG_19  and  CD_21
REMARK    8  A    between atoms: CD_21  and  OE1_22
REMARK    9  A    between atoms: C_24  and  C_32
REMARK   10  A    between atoms: N_27  and  C_37
REMARK                            x       y       z     vdW  Elec       q    Type
REMARK                         _______ _______ _______ _____ _____    ______ ____
ROOT
ATOM      1  N   UNL     1     -39.092 -63.415 -94.211  0.00  0.00    +0.000 N 
ATOM      2  H   UNL     1     -38.236 -63.331 -93.664  0.00  0.00    +0.000 HD
ENDROOT
BRANCH   1   3
ATOM      3  C   UNL     1     -39.028 -64.476 -95.139  0.00  0.00    +0.000 A 
ATOM      4  C   UNL     1     -39.484 -65.742 -94.758  0.00  0.00    +0.000 A 
ATOM      5  C   UNL     1     -38.361 -64.357 -96.364  0.00  0.00    +0.000 A 
ATOM      6  C   UNL     1     -38.719 -66.697 -96.840  0.00  0.00    +0.000 A 
ATOM      7  C   UNL     1     -39.347 -66.841 -95.605  0.00  0.00    +0.000 A 
ATOM      8  C   UNL     1     -38.221 -65.449 -97.216  0.00  0.00    +0.000 A 
BRANCH   6  11
ATOM      9  O   UNL     1     -39.470 -68.102 -98.547  0.00  0.00    +0.000 OA
ATOM     10  N   UNL     1     -37.355 -68.519 -97.700  0.00  0.00    +0.000 N 
ATOM     11  C   ACE A   0     -38.554 -67.836 -97.777  0.00  0.00    +0.000 C 
ATOM     12  H   UNL     1     -36.656 -68.226 -97.023  0.00  0.00    +0.000 HD
ATOM     13  CA  UNL     1     -36.966 -69.609 -98.459  0.00  0.00    +0.000 C 
BRANCH  13  15
ATOM     14  OXT UNL     1     -34.618 -69.885 -98.814  0.00  0.00    +0.000 OA
ATOM     15  C   UNL     1     -35.618 -70.152 -98.163  0.00  0.00    +0.000 C 
BRANCH  15  16
ATOM     16  O   UNL     1     -35.576 -70.975 -97.104  0.00  0.00    +0.000 OA
ATOM     17  H   UNL     1     -36.219 -70.598 -96.468  0.00  0.00    +0.000 HD
ENDBRANCH  15  16
ENDBRANCH  13  15
BRANCH  13  18
ATOM     18  CB  UNL     1     -37.800 -70.173 -99.459  0.00  0.00    +0.000 C 
ATOM     19  CG  UNL     1     -38.694 -70.779-100.548  0.00  0.00    +0.000 C 
BRANCH  19  21
ATOM     20  OE2 UNL     1     -39.134 -72.201-102.350  0.00  0.00    +0.000 OA
ATOM     21  CD  UNL     1     -39.515 -71.339-101.578  0.00  0.00    +0.000 C 
BRANCH  21  22
ATOM     22  OE1 UNL     1     -40.752 -70.814-101.638  0.00  0.00    +0.000 OA
ATOM     23  HE1 UNL     1     -40.943 -70.577-100.708  0.00  0.00    +0.000 HD
ENDBRANCH  21  22
ENDBRANCH  19  21
ENDBRANCH  13  18
ENDBRANCH   6  11
ENDBRANCH   1   3
BRANCH   1  24
ATOM     24  C   UNL     1     -40.337 -63.195 -93.485  0.00  0.00    +0.000 C 
BRANCH  24  31
ATOM     25  O   UNL     1     -44.768 -60.374 -93.759  0.00  0.00    +0.000 OA
ATOM     26  N   UNL     1     -42.568 -62.182 -93.180  0.00  0.00    +0.000 N 
ATOM     27  N   UNL     1     -42.941 -63.548 -90.630  0.00  0.00    +0.000 N 
ATOM     28  N   UNL     1     -44.936 -62.342 -90.278  0.00  0.00    +0.000 NA
ATOM     29  N   UNL     1     -45.839 -60.938 -91.879  0.00  0.00    +0.000 N 
ATOM     30  N   UNL     1     -46.937 -61.285 -89.885  0.00  0.00    +0.000 N 
ATOM     31  C   UNL     1     -41.523 -62.985 -92.733  0.00  0.00    +0.000 C 
ATOM     32  C   UNL     1     -41.795 -63.566 -91.484  0.00  0.00    +0.000 C 
ATOM     33  C   UNL     1     -43.695 -61.996 -92.333  0.00  0.00    +0.000 A 
ATOM     34  C   UNL     1     -43.871 -62.609 -91.112  0.00  0.00    +0.000 A 
ATOM     35  C   UNL     1     -44.786 -61.048 -92.734  0.00  0.00    +0.000 A 
ATOM     36  C   UNL     1     -45.869 -61.546 -90.674  0.00  0.00    +0.000 A 
ATOM     37  H   UNL     1     -42.871 -63.498 -89.618  0.00  0.00    +0.000 HD
ATOM     38  H   UNL     1     -46.545 -60.264 -92.131  0.00  0.00    +0.000 HD
ATOM     39  H   UNL     1     -46.999 -61.927 -89.099  0.00  0.00    +0.000 HD
ATOM     40  H   UNL     1     -47.826 -61.152 -90.348  0.00  0.00    +0.000 HD
BRANCH  26  42
ATOM     41  O   UNL     1     -42.368 -61.119 -95.462  0.00  0.00    +0.000 OA
ATOM     42  C   UNL     1     -42.453 -61.580 -94.384  0.00  0.00    +0.000 C 
ENDBRANCH  26  42
ENDBRANCH  24  31
ENDBRANCH   1  24
TORSDOF 10
ENDMDL
MODEL 9
REMARK VINA RESULT:      -5.6     38.334     45.506
REMARK  Name = 135403648_CalciumFolinate.pdbqt.pdb
REMARK  10 active torsions:
REMARK  status: ('A' for Active; 'I' for Inactive)
REMARK    1  A    between atoms: N_1  and  C_3
REMARK    2  A    between atoms: N_1  and  C_24
REMARK    3  A    between atoms: C_6  and  C_11
REMARK    4  A    between atoms: CA_13  and  C_15
REMARK    5  A    between atoms: CA_13  and  CB_18
REMARK    6  A    between atoms: C_15  and  O_16
REMARK    7  A    between atoms: CG_19  and  CD_21
REMARK    8  A    between atoms: CD_21  and  OE1_22
REMARK    9  A    between atoms: C_24  and  C_32
REMARK   10  A    between atoms: N_27  and  C_37
REMARK                            x       y       z     vdW  Elec       q    Type
REMARK                         _______ _______ _______ _____ _____    ______ ____
ROOT
ATOM      1  N   UNL     1     -66.771 -48.369 -35.700  0.00  0.00    +0.000 N 
ATOM      2  H   UNL     1     -67.205 -49.214 -36.070  0.00  0.00    +0.000 HD
ENDROOT
BRANCH   1   3
ATOM      3  C   UNL     1     -66.599 -48.429 -34.301  0.00  0.00    +0.000 A 
ATOM      4  C   UNL     1     -67.239 -49.440 -33.578  0.00  0.00    +0.000 A 
ATOM      5  C   UNL     1     -65.959 -47.410 -33.584  0.00  0.00    +0.000 A 
ATOM      6  C   UNL     1     -66.501 -48.481 -31.488  0.00  0.00    +0.000 A 
ATOM      7  C   UNL     1     -67.179 -49.478 -32.186  0.00  0.00    +0.000 A 
ATOM      8  C   UNL     1     -65.894 -47.441 -32.193  0.00  0.00    +0.000 A 
BRANCH   6  11
ATOM      9  O   UNL     1     -67.238 -47.849 -29.365  0.00  0.00    +0.000 OA
ATOM     10  N   UNL     1     -65.365 -49.207 -29.463  0.00  0.00    +0.000 N 
ATOM     11  C   ACE A   0     -66.407 -48.481 -30.007  0.00  0.00    +0.000 C 
ATOM     12  H   UNL     1     -64.721 -49.696 -30.080  0.00  0.00    +0.000 HD
ATOM     13  CA  UNL     1     -65.065 -49.359 -28.121  0.00  0.00    +0.000 C 
BRANCH  13  15
ATOM     14  OXT UNL     1     -63.536 -50.504 -26.683  0.00  0.00    +0.000 OA
ATOM     15  C   UNL     1     -63.879 -50.196 -27.815  0.00  0.00    +0.000 C 
BRANCH  15  16
ATOM     16  O   UNL     1     -63.196 -50.599 -28.898  0.00  0.00    +0.000 OA
ATOM     17  H   UNL     1     -62.934 -51.523 -28.700  0.00  0.00    +0.000 HD
ENDBRANCH  15  16
ENDBRANCH  13  15
BRANCH  13  18
ATOM     18  CB  UNL     1     -65.841 -48.755 -27.097  0.00  0.00    +0.000 C 
ATOM     19  CG  UNL     1     -66.681 -48.092 -25.999  0.00  0.00    +0.000 C 
BRANCH  19  21
ATOM     20  OE2 UNL     1     -68.608 -47.068 -25.162  0.00  0.00    +0.000 OA
ATOM     21  CD  UNL     1     -67.468 -47.459 -24.985  0.00  0.00    +0.000 C 
BRANCH  21  22
ATOM     22  OE1 UNL     1     -66.830 -47.308 -23.810  0.00  0.00    +0.000 OA
ATOM     23  HE1 UNL     1     -67.255 -46.517 -23.422  0.00  0.00    +0.000 HD
ENDBRANCH  21  22
ENDBRANCH  19  21
ENDBRANCH  13  18
ENDBRANCH   6  11
ENDBRANCH   1   3
BRANCH   1  24
ATOM     24  C   UNL     1     -65.706 -47.791 -36.511  0.00  0.00    +0.000 C 
BRANCH  24  31
ATOM     25  O   UNL     1     -65.270 -45.464 -41.209  0.00  0.00    +0.000 OA
ATOM     26  N   UNL     1     -64.982 -46.600 -38.549  0.00  0.00    +0.000 N 
ATOM     27  N   UNL     1     -62.192 -46.647 -37.697  0.00  0.00    +0.000 N 
ATOM     28  N   UNL     1     -61.543 -45.752 -39.779  0.00  0.00    +0.000 NA
ATOM     29  N   UNL     1     -63.075 -45.070 -41.372  0.00  0.00    +0.000 N 
ATOM     30  N   UNL     1     -60.819 -44.799 -41.740  0.00  0.00    +0.000 N 
ATOM     31  C   UNL     1     -64.699 -47.232 -37.343  0.00  0.00    +0.000 C 
ATOM     32  C   UNL     1     -63.327 -47.225 -37.047  0.00  0.00    +0.000 C 
ATOM     33  C   UNL     1     -63.900 -46.113 -39.333  0.00  0.00    +0.000 A 
ATOM     34  C   UNL     1     -62.575 -46.157 -38.959  0.00  0.00    +0.000 A 
ATOM     35  C   UNL     1     -64.160 -45.530 -40.691  0.00  0.00    +0.000 A 
ATOM     36  C   UNL     1     -61.811 -45.227 -40.925  0.00  0.00    +0.000 A 
ATOM     37  H   UNL     1     -61.293 -47.116 -37.751  0.00  0.00    +0.000 HD
ATOM     38  H   UNL     1     -63.251 -44.723 -42.302  0.00  0.00    +0.000 HD
ATOM     39  H   UNL     1     -59.923 -44.753 -41.261  0.00  0.00    +0.000 HD
ATOM     40  H   UNL     1     -61.005 -43.974 -42.294  0.00  0.00    +0.000 HD
BRANCH  26  42
ATOM     41  O   UNL     1     -67.391 -46.502 -39.301  0.00  0.00    +0.000 OA
ATOM     42  C   UNL     1     -66.270 -46.509 -38.947  0.00  0.00    +0.000 C 
ENDBRANCH  26  42
ENDBRANCH  24  31
ENDBRANCH   1  24
TORSDOF 10
ENDMDL
