MODEL 1
REMARK VINA RESULT:      -6.9      0.000      0.000
REMARK  Name = 135423438_Nintedanib.pdbqt.pdb
REMARK  9 active torsions:
REMARK  status: ('A' for Active; 'I' for Inactive)
REMARK    1  A    between atoms: N_1  and  C_22
REMARK    2  A    between atoms: C_2  and  C_4
REMARK    3  A    between atoms: C_2  and  C_37
REMARK    4  A    between atoms: C_7  and  O_13
REMARK    5  A    between atoms: C_10  and  C_16
REMARK    6  A    between atoms: C_16  and  O_17
REMARK    7  A    between atoms: C_19  and  N_26
REMARK    8  A    between atoms: C_27  and  C_29
REMARK    9  A    between atoms: C_29  and  N_30
REMARK                            x       y       z     vdW  Elec       q    Type
REMARK                         _______ _______ _______ _____ _____    ______ ____
ROOT
ATOM      1  N   UNL     1     -59.458 -58.823 -59.373  0.00  0.00    +0.000 NA
ATOM      2  C   UNL     1     -59.816 -57.669 -58.889  0.00  0.00    +0.000 C 
ENDROOT
BRANCH   2   4
ATOM      3  N   UNL     1     -61.540 -57.754 -55.657  0.00  0.00    +0.000 N 
ATOM      4  C   UNL     1     -60.261 -57.651 -57.489  0.00  0.00    +0.000 A 
ATOM      5  C   UNL     1     -59.450 -57.391 -56.328  0.00  0.00    +0.000 A 
ATOM      6  C   UNL     1     -60.276 -57.465 -55.208  0.00  0.00    +0.000 A 
ATOM      7  C   UNL     1     -61.552 -57.865 -57.025  0.00  0.00    +0.000 A 
ATOM      8  C   UNL     1     -58.084 -57.105 -56.130  0.00  0.00    +0.000 A 
ATOM      9  C   UNL     1     -59.811 -57.265 -53.904  0.00  0.00    +0.000 A 
ATOM     10  C   UNL     1     -58.450 -56.979 -53.740  0.00  0.00    +0.000 A 
ATOM     11  C   UNL     1     -57.598 -56.902 -54.837  0.00  0.00    +0.000 A 
ATOM     12  H   UNL     1     -62.342 -57.861 -55.055  0.00  0.00    +0.000 HD
BRANCH   7  13
ATOM     13  O   UNL     1     -62.674 -58.125 -57.687  0.00  0.00    +0.000 OA
ATOM     14  H   UNL     1     -62.577 -57.906 -58.630  0.00  0.00    +0.000 HD
ENDBRANCH   7  13
BRANCH  10  16
ATOM     15  O   UNL     1     -56.680 -56.532 -52.224  0.00  0.00    +0.000 OA
ATOM     16  C   UNL     1     -57.869 -56.753 -52.399  0.00  0.00    +0.000 C 
BRANCH  16  17
ATOM     17  O   UNL     1     -58.866 -56.836 -51.473  0.00  0.00    +0.000 OA
ATOM     18  C   UNL     1     -59.063 -55.745 -50.611  0.00  0.00    +0.000 C 
ENDBRANCH  16  17
ENDBRANCH  10  16
ENDBRANCH   2   4
BRANCH   1  22
ATOM     19  C   UNL     1     -58.218 -59.315 -63.388  0.00  0.00    +0.000 A 
ATOM     20  C   UNL     1     -57.300 -59.303 -62.335  0.00  0.00    +0.000 A 
ATOM     21  C   UNL     1     -59.571 -59.156 -63.058  0.00  0.00    +0.000 A 
ATOM     22  C   UNL     1     -59.052 -58.947 -60.707  0.00  0.00    +0.000 A 
ATOM     23  C   UNL     1     -57.704 -59.132 -61.012  0.00  0.00    +0.000 A 
ATOM     24  C   UNL     1     -59.987 -58.985 -61.739  0.00  0.00    +0.000 A 
BRANCH  19  26
ATOM     25  O   UNL     1     -55.871 -58.116 -64.586  0.00  0.00    +0.000 OA
ATOM     26  N   UNL     1     -57.803 -59.485 -64.762  0.00  0.00    +0.000 N 
ATOM     27  C   UNL     1     -56.629 -58.839 -65.226  0.00  0.00    +0.000 C 
ATOM     28  C   UNL     1     -58.674 -60.335 -65.578  0.00  0.00    +0.000 C 
BRANCH  27  29
ATOM     29  C   UNL     1     -56.279 -59.051 -66.623  0.00  0.00    +0.000 C 
BRANCH  29  30
ATOM     30  N   UNL     1     -55.906 -59.282 -68.017  0.00  0.00    +0.000 N 
ATOM     31  N   UNL     1     -53.065 -57.484 -69.155  0.00  0.00    +0.000 N 
ATOM     32  C   UNL     1     -55.761 -57.943 -68.652  0.00  0.00    +0.000 C 
ATOM     33  C   UNL     1     -54.453 -59.610 -68.018  0.00  0.00    +0.000 C 
ATOM     34  C   UNL     1     -54.516 -57.153 -69.148  0.00  0.00    +0.000 C 
ATOM     35  C   UNL     1     -53.207 -58.819 -68.514  0.00  0.00    +0.000 C 
ATOM     36  C   UNL     1     -52.428 -56.611 -68.179  0.00  0.00    +0.000 C 
ENDBRANCH  29  30
ENDBRANCH  27  29
ENDBRANCH  19  26
ENDBRANCH   1  22
BRANCH   2  37
ATOM     37  C   UNL     1     -59.810 -56.401 -59.640  0.00  0.00    +0.000 A 
ATOM     38  C   UNL     1     -58.595 -55.824 -60.002  0.00  0.00    +0.000 A 
ATOM     39  C   UNL     1     -61.025 -55.820 -60.002  0.00  0.00    +0.000 A 
ATOM     40  C   UNL     1     -58.599 -54.640 -60.734  0.00  0.00    +0.000 A 
ATOM     41  C   UNL     1     -61.017 -54.637 -60.733  0.00  0.00    +0.000 A 
ATOM     42  C   UNL     1     -59.807 -54.048 -61.098  0.00  0.00    +0.000 A 
ENDBRANCH   2  37
TORSDOF 9
ENDMDL
MODEL 2
REMARK VINA RESULT:      -6.4     15.004     19.535
REMARK  Name = 135423438_Nintedanib.pdbqt.pdb
REMARK  9 active torsions:
REMARK  status: ('A' for Active; 'I' for Inactive)
REMARK    1  A    between atoms: N_1  and  C_22
REMARK    2  A    between atoms: C_2  and  C_4
REMARK    3  A    between atoms: C_2  and  C_37
REMARK    4  A    between atoms: C_7  and  O_13
REMARK    5  A    between atoms: C_10  and  C_16
REMARK    6  A    between atoms: C_16  and  O_17
REMARK    7  A    between atoms: C_19  and  N_26
REMARK    8  A    between atoms: C_27  and  C_29
REMARK    9  A    between atoms: C_29  and  N_30
REMARK                            x       y       z     vdW  Elec       q    Type
REMARK                         _______ _______ _______ _____ _____    ______ ____
ROOT
ATOM      1  N   UNL     1     -66.417 -61.794 -77.323  0.00  0.00    +0.000 NA
ATOM      2  C   UNL     1     -65.931 -60.659 -76.909  0.00  0.00    +0.000 C 
ENDROOT
BRANCH   2   4
ATOM      3  N   UNL     1     -67.641 -58.964 -74.148  0.00  0.00    +0.000 N 
ATOM      4  C   UNL     1     -66.464 -60.140 -75.642  0.00  0.00    +0.000 A 
ATOM      5  C   UNL     1     -66.067 -60.526 -74.314  0.00  0.00    +0.000 A 
ATOM      6  C   UNL     1     -66.820 -59.779 -73.410  0.00  0.00    +0.000 A 
ATOM      7  C   UNL     1     -67.440 -59.163 -75.490  0.00  0.00    +0.000 A 
ATOM      8  C   UNL     1     -65.137 -61.453 -73.799  0.00  0.00    +0.000 A 
ATOM      9  C   UNL     1     -66.690 -59.904 -72.023  0.00  0.00    +0.000 A 
ATOM     10  C   UNL     1     -65.755 -60.830 -71.543  0.00  0.00    +0.000 A 
ATOM     11  C   UNL     1     -64.991 -61.594 -72.417  0.00  0.00    +0.000 A 
ATOM     12  H   UNL     1     -68.296 -58.309 -73.745  0.00  0.00    +0.000 HD
BRANCH   7  13
ATOM     13  O   UNL     1     -68.115 -58.470 -76.400  0.00  0.00    +0.000 OA
ATOM     14  H   UNL     1     -67.518 -58.135 -77.092  0.00  0.00    +0.000 HD
ENDBRANCH   7  13
BRANCH  10  16
ATOM     15  O   UNL     1     -65.855 -60.187 -69.261  0.00  0.00    +0.000 OA
ATOM     16  C   UNL     1     -65.550 -61.030 -70.091  0.00  0.00    +0.000 C 
BRANCH  16  17
ATOM     17  O   UNL     1     -64.993 -62.259 -69.895  0.00  0.00    +0.000 OA
ATOM     18  C   UNL     1     -65.210 -62.895 -68.662  0.00  0.00    +0.000 C 
ENDBRANCH  16  17
ENDBRANCH  10  16
ENDBRANCH   2   4
BRANCH   1  22
ATOM     19  C   UNL     1     -65.210 -63.582 -80.963  0.00  0.00    +0.000 A 
ATOM     20  C   UNL     1     -64.620 -63.931 -79.746  0.00  0.00    +0.000 A 
ATOM     21  C   UNL     1     -66.220 -62.612 -80.929  0.00  0.00    +0.000 A 
ATOM     22  C   UNL     1     -65.996 -62.353 -78.536  0.00  0.00    +0.000 A 
ATOM     23  C   UNL     1     -65.009 -63.337 -78.546  0.00  0.00    +0.000 A 
ATOM     24  C   UNL     1     -66.618 -62.011 -79.735  0.00  0.00    +0.000 A 
BRANCH  19  26
ATOM     25  O   UNL     1     -62.762 -62.994 -82.392  0.00  0.00    +0.000 OA
ATOM     26  N   UNL     1     -64.805 -64.189 -82.211  0.00  0.00    +0.000 N 
ATOM     27  C   UNL     1     -63.577 -63.811 -82.810  0.00  0.00    +0.000 C 
ATOM     28  C   UNL     1     -65.743 -65.171 -82.762  0.00  0.00    +0.000 C 
BRANCH  27  29
ATOM     29  C   UNL     1     -63.240 -64.461 -84.069  0.00  0.00    +0.000 C 
BRANCH  29  30
ATOM     30  N   UNL     1     -62.909 -65.086 -85.348  0.00  0.00    +0.000 N 
ATOM     31  N   UNL     1     -60.450 -67.642 -85.203  0.00  0.00    +0.000 N 
ATOM     32  C   UNL     1     -61.426 -65.052 -85.472  0.00  0.00    +0.000 C 
ATOM     33  C   UNL     1     -63.010 -66.558 -85.137  0.00  0.00    +0.000 C 
ATOM     34  C   UNL     1     -60.347 -66.171 -85.406  0.00  0.00    +0.000 C 
ATOM     35  C   UNL     1     -61.931 -67.677 -85.071  0.00  0.00    +0.000 C 
ATOM     36  C   UNL     1     -59.900 -67.926 -83.884  0.00  0.00    +0.000 C 
ENDBRANCH  29  30
ENDBRANCH  27  29
ENDBRANCH  19  26
ENDBRANCH   1  22
BRANCH   2  37
ATOM     37  C   UNL     1     -64.904 -59.872 -77.614  0.00  0.00    +0.000 A 
ATOM     38  C   UNL     1     -65.295 -58.925 -78.559  0.00  0.00    +0.000 A 
ATOM     39  C   UNL     1     -63.561 -60.068 -77.296  0.00  0.00    +0.000 A 
ATOM     40  C   UNL     1     -64.320 -58.168 -79.201  0.00  0.00    +0.000 A 
ATOM     41  C   UNL     1     -62.595 -59.306 -77.944  0.00  0.00    +0.000 A 
ATOM     42  C   UNL     1     -62.973 -58.358 -78.894  0.00  0.00    +0.000 A 
ENDBRANCH   2  37
TORSDOF 9
ENDMDL
MODEL 3
REMARK VINA RESULT:      -6.3     27.202     35.405
REMARK  Name = 135423438_Nintedanib.pdbqt.pdb
REMARK  9 active torsions:
REMARK  status: ('A' for Active; 'I' for Inactive)
REMARK    1  A    between atoms: N_1  and  C_22
REMARK    2  A    between atoms: C_2  and  C_4
REMARK    3  A    between atoms: C_2  and  C_37
REMARK    4  A    between atoms: C_7  and  O_13
REMARK    5  A    between atoms: C_10  and  C_16
REMARK    6  A    between atoms: C_16  and  O_17
REMARK    7  A    between atoms: C_19  and  N_26
REMARK    8  A    between atoms: C_27  and  C_29
REMARK    9  A    between atoms: C_29  and  N_30
REMARK                            x       y       z     vdW  Elec       q    Type
REMARK                         _______ _______ _______ _____ _____    ______ ____
ROOT
ATOM      1  N   UNL     1     -71.680 -57.353 -26.753  0.00  0.00    +0.000 NA
ATOM      2  C   UNL     1     -72.857 -57.229 -26.211  0.00  0.00    +0.000 C 
ENDROOT
BRANCH   2   4
ATOM      3  N   UNL     1     -72.709 -58.260 -22.699  0.00  0.00    +0.000 N 
ATOM      4  C   UNL     1     -72.935 -57.411 -24.756  0.00  0.00    +0.000 A 
ATOM      5  C   UNL     1     -73.582 -56.541 -23.809  0.00  0.00    +0.000 A 
ATOM      6  C   UNL     1     -73.420 -57.097 -22.541  0.00  0.00    +0.000 A 
ATOM      7  C   UNL     1     -72.412 -58.468 -24.022  0.00  0.00    +0.000 A 
ATOM      8  C   UNL     1     -74.286 -55.324 -23.917  0.00  0.00    +0.000 A 
ATOM      9  C   UNL     1     -73.927 -56.506 -21.379  0.00  0.00    +0.000 A 
ATOM     10  C   UNL     1     -74.626 -55.299 -21.520  0.00  0.00    +0.000 A 
ATOM     11  C   UNL     1     -74.801 -54.716 -22.770  0.00  0.00    +0.000 A 
ATOM     12  H   UNL     1     -72.452 -58.872 -21.938  0.00  0.00    +0.000 HD
BRANCH   7  13
ATOM     13  O   UNL     1     -71.741 -59.544 -24.418  0.00  0.00    +0.000 OA
ATOM     14  H   UNL     1     -72.333 -60.175 -24.865  0.00  0.00    +0.000 HD
ENDBRANCH   7  13
BRANCH  10  16
ATOM     15  O   UNL     1     -76.381 -54.313 -20.265  0.00  0.00    +0.000 OA
ATOM     16  C   UNL     1     -75.196 -54.602 -20.347  0.00  0.00    +0.000 C 
BRANCH  16  17
ATOM     17  O   UNL     1     -74.197 -54.370 -19.449  0.00  0.00    +0.000 OA
ATOM     18  C   UNL     1     -73.411 -53.218 -19.616  0.00  0.00    +0.000 C 
ENDBRANCH  16  17
ENDBRANCH  10  16
ENDBRANCH   2   4
BRANCH   1  22
ATOM     19  C   UNL     1     -71.052 -57.000 -30.922  0.00  0.00    +0.000 A 
ATOM     20  C   UNL     1     -70.779 -55.944 -30.049  0.00  0.00    +0.000 A 
ATOM     21  C   UNL     1     -71.546 -58.184 -30.358  0.00  0.00    +0.000 A 
ATOM     22  C   UNL     1     -71.511 -57.230 -28.137  0.00  0.00    +0.000 A 
ATOM     23  C   UNL     1     -70.993 -56.054 -28.676  0.00  0.00    +0.000 A 
ATOM     24  C   UNL     1     -71.764 -58.306 -28.987  0.00  0.00    +0.000 A 
BRANCH  19  26
ATOM     25  O   UNL     1     -68.527 -57.421 -32.273  0.00  0.00    +0.000 OA
ATOM     26  N   UNL     1     -70.839 -56.887 -32.347  0.00  0.00    +0.000 N 
ATOM     27  C   UNL     1     -69.547 -57.119 -32.885  0.00  0.00    +0.000 C 
ATOM     28  C   UNL     1     -72.023 -56.523 -33.130  0.00  0.00    +0.000 C 
BRANCH  27  29
ATOM     29  C   UNL     1     -69.409 -56.979 -34.328  0.00  0.00    +0.000 C 
BRANCH  29  30
ATOM     30  N   UNL     1     -69.296 -56.826 -35.777  0.00  0.00    +0.000 N 
ATOM     31  N   UNL     1     -68.454 -59.775 -37.562  0.00  0.00    +0.000 N 
ATOM     32  C   UNL     1     -67.986 -57.414 -36.171  0.00  0.00    +0.000 C 
ATOM     33  C   UNL     1     -70.134 -57.899 -36.382  0.00  0.00    +0.000 C 
ATOM     34  C   UNL     1     -67.616 -58.708 -36.951  0.00  0.00    +0.000 C 
ATOM     35  C   UNL     1     -69.763 -59.194 -37.162  0.00  0.00    +0.000 C 
ATOM     36  C   UNL     1     -68.260 -60.975 -36.760  0.00  0.00    +0.000 C 
ENDBRANCH  29  30
ENDBRANCH  27  29
ENDBRANCH  19  26
ENDBRANCH   1  22
BRANCH   2  37
ATOM     37  C   UNL     1     -74.098 -56.927 -26.948  0.00  0.00    +0.000 A 
ATOM     38  C   UNL     1     -74.325 -55.631 -27.406  0.00  0.00    +0.000 A 
ATOM     39  C   UNL     1     -75.005 -57.955 -27.200  0.00  0.00    +0.000 A 
ATOM     40  C   UNL     1     -75.486 -55.361 -28.124  0.00  0.00    +0.000 A 
ATOM     41  C   UNL     1     -76.163 -57.674 -27.918  0.00  0.00    +0.000 A 
ATOM     42  C   UNL     1     -76.403 -56.380 -28.379  0.00  0.00    +0.000 A 
ENDBRANCH   2  37
TORSDOF 9
ENDMDL
MODEL 4
REMARK VINA RESULT:      -6.3     25.428     35.379
REMARK  Name = 135423438_Nintedanib.pdbqt.pdb
REMARK  9 active torsions:
REMARK  status: ('A' for Active; 'I' for Inactive)
REMARK    1  A    between atoms: N_1  and  C_22
REMARK    2  A    between atoms: C_2  and  C_4
REMARK    3  A    between atoms: C_2  and  C_37
REMARK    4  A    between atoms: C_7  and  O_13
REMARK    5  A    between atoms: C_10  and  C_16
REMARK    6  A    between atoms: C_16  and  O_17
REMARK    7  A    between atoms: C_19  and  N_26
REMARK    8  A    between atoms: C_27  and  C_29
REMARK    9  A    between atoms: C_29  and  N_30
REMARK                            x       y       z     vdW  Elec       q    Type
REMARK                         _______ _______ _______ _____ _____    ______ ____
ROOT
ATOM      1  N   UNL     1     -70.767 -57.812 -30.881  0.00  0.00    +0.000 NA
ATOM      2  C   UNL     1     -70.400 -56.797 -31.609  0.00  0.00    +0.000 C 
ENDROOT
BRANCH   2   4
ATOM      3  N   UNL     1     -67.659 -57.715 -33.860  0.00  0.00    +0.000 N 
ATOM      4  C   UNL     1     -69.468 -57.079 -32.709  0.00  0.00    +0.000 A 
ATOM      5  C   UNL     1     -69.684 -56.831 -34.110  0.00  0.00    +0.000 A 
ATOM      6  C   UNL     1     -68.542 -57.239 -34.796  0.00  0.00    +0.000 A 
ATOM      7  C   UNL     1     -68.195 -57.623 -32.601  0.00  0.00    +0.000 A 
ATOM      8  C   UNL     1     -70.755 -56.300 -34.859  0.00  0.00    +0.000 A 
ATOM      9  C   UNL     1     -68.411 -57.142 -36.185  0.00  0.00    +0.000 A 
ATOM     10  C   UNL     1     -69.490 -56.606 -36.900  0.00  0.00    +0.000 A 
ATOM     11  C   UNL     1     -70.646 -56.193 -36.246  0.00  0.00    +0.000 A 
ATOM     12  H   UNL     1     -66.742 -58.075 -34.081  0.00  0.00    +0.000 HD
BRANCH   7  13
ATOM     13  O   UNL     1     -67.512 -58.010 -31.529  0.00  0.00    +0.000 OA
ATOM     14  H   UNL     1     -67.708 -57.435 -30.768  0.00  0.00    +0.000 HD
ENDBRANCH   7  13
BRANCH  10  16
ATOM     15  O   UNL     1     -70.397 -56.078 -39.028  0.00  0.00    +0.000 OA
ATOM     16  C   UNL     1     -69.442 -56.465 -38.371  0.00  0.00    +0.000 C 
BRANCH  16  17
ATOM     17  O   UNL     1     -68.202 -56.831 -38.804  0.00  0.00    +0.000 OA
ATOM     18  C   UNL     1     -67.437 -55.882 -39.502  0.00  0.00    +0.000 C 
ENDBRANCH  16  17
ENDBRANCH  10  16
ENDBRANCH   2   4
BRANCH   1  22
ATOM     19  C   UNL     1     -73.365 -57.405 -27.567  0.00  0.00    +0.000 A 
ATOM     20  C   UNL     1     -73.840 -57.777 -28.827  0.00  0.00    +0.000 A 
ATOM     21  C   UNL     1     -71.989 -57.171 -27.446  0.00  0.00    +0.000 A 
ATOM     22  C   UNL     1     -71.625 -57.638 -29.789  0.00  0.00    +0.000 A 
ATOM     23  C   UNL     1     -72.988 -57.903 -29.923  0.00  0.00    +0.000 A 
ATOM     24  C   UNL     1     -71.127 -57.295 -28.534  0.00  0.00    +0.000 A 
BRANCH  19  26
ATOM     25  O   UNL     1     -74.581 -54.930 -26.686  0.00  0.00    +0.000 OA
ATOM     26  N   UNL     1     -74.246 -57.265 -26.429  0.00  0.00    +0.000 N 
ATOM     27  C   UNL     1     -74.776 -55.992 -26.103  0.00  0.00    +0.000 C 
ATOM     28  C   UNL     1     -74.511 -58.502 -25.688  0.00  0.00    +0.000 C 
BRANCH  27  29
ATOM     29  C   UNL     1     -75.649 -55.929 -24.939  0.00  0.00    +0.000 C 
BRANCH  29  30
ATOM     30  N   UNL     1     -76.519 -55.895 -23.766  0.00  0.00    +0.000 N 
ATOM     31  N   UNL     1     -74.852 -55.818 -20.632  0.00  0.00    +0.000 N 
ATOM     32  C   UNL     1     -76.055 -56.978 -22.855  0.00  0.00    +0.000 C 
ATOM     33  C   UNL     1     -76.042 -54.768 -22.917  0.00  0.00    +0.000 C 
ATOM     34  C   UNL     1     -75.322 -56.945 -21.483  0.00  0.00    +0.000 C 
ATOM     35  C   UNL     1     -75.308 -54.735 -21.545  0.00  0.00    +0.000 C 
ATOM     36  C   UNL     1     -73.396 -55.829 -20.683  0.00  0.00    +0.000 C 
ENDBRANCH  29  30
ENDBRANCH  27  29
ENDBRANCH  19  26
ENDBRANCH   1  22
BRANCH   2  37
ATOM     37  C   UNL     1     -70.845 -55.408 -31.406  0.00  0.00    +0.000 A 
ATOM     38  C   UNL     1     -72.049 -54.984 -31.966  0.00  0.00    +0.000 A 
ATOM     39  C   UNL     1     -70.068 -54.552 -30.626  0.00  0.00    +0.000 A 
ATOM     40  C   UNL     1     -72.475 -53.678 -31.746  0.00  0.00    +0.000 A 
ATOM     41  C   UNL     1     -70.502 -53.248 -30.414  0.00  0.00    +0.000 A 
ATOM     42  C   UNL     1     -71.704 -52.812 -30.972  0.00  0.00    +0.000 A 
ENDBRANCH   2  37
TORSDOF 9
ENDMDL
MODEL 5
REMARK VINA RESULT:      -6.2     17.894     25.453
REMARK  Name = 135423438_Nintedanib.pdbqt.pdb
REMARK  9 active torsions:
REMARK  status: ('A' for Active; 'I' for Inactive)
REMARK    1  A    between atoms: N_1  and  C_22
REMARK    2  A    between atoms: C_2  and  C_4
REMARK    3  A    between atoms: C_2  and  C_37
REMARK    4  A    between atoms: C_7  and  O_13
REMARK    5  A    between atoms: C_10  and  C_16
REMARK    6  A    between atoms: C_16  and  O_17
REMARK    7  A    between atoms: C_19  and  N_26
REMARK    8  A    between atoms: C_27  and  C_29
REMARK    9  A    between atoms: C_29  and  N_30
REMARK                            x       y       z     vdW  Elec       q    Type
REMARK                         _______ _______ _______ _____ _____    ______ ____
ROOT
ATOM      1  N   UNL     1     -70.068 -55.916 -37.363  0.00  0.00    +0.000 NA
ATOM      2  C   UNL     1     -70.027 -56.527 -36.214  0.00  0.00    +0.000 C 
ENDROOT
BRANCH   2   4
ATOM      3  N   UNL     1     -72.528 -54.939 -34.059  0.00  0.00    +0.000 N 
ATOM      4  C   UNL     1     -70.871 -55.976 -35.145  0.00  0.00    +0.000 A 
ATOM      5  C   UNL     1     -70.618 -56.030 -33.730  0.00  0.00    +0.000 A 
ATOM      6  C   UNL     1     -71.667 -55.379 -33.084  0.00  0.00    +0.000 A 
ATOM      7  C   UNL     1     -72.065 -55.284 -35.303  0.00  0.00    +0.000 A 
ATOM      8  C   UNL     1     -69.591 -56.582 -32.937  0.00  0.00    +0.000 A 
ATOM      9  C   UNL     1     -71.743 -55.245 -31.694  0.00  0.00    +0.000 A 
ATOM     10  C   UNL     1     -70.705 -55.801 -30.935  0.00  0.00    +0.000 A 
ATOM     11  C   UNL     1     -69.645 -56.461 -31.547  0.00  0.00    +0.000 A 
ATOM     12  H   UNL     1     -73.379 -54.428 -33.872  0.00  0.00    +0.000 HD
BRANCH   7  13
ATOM     13  O   UNL     1     -72.728 -54.948 -36.405  0.00  0.00    +0.000 OA
ATOM     14  H   UNL     1     -72.470 -55.519 -37.150  0.00  0.00    +0.000 HD
ENDBRANCH   7  13
BRANCH  10  16
ATOM     15  O   UNL     1     -69.899 -55.021 -28.844  0.00  0.00    +0.000 OA
ATOM     16  C   UNL     1     -70.701 -55.709 -29.459  0.00  0.00    +0.000 C 
BRANCH  16  17
ATOM     17  O   UNL     1     -71.703 -56.493 -28.970  0.00  0.00    +0.000 OA
ATOM     18  C   UNL     1     -71.480 -57.180 -27.765  0.00  0.00    +0.000 C 
ENDBRANCH  16  17
ENDBRANCH  10  16
ENDBRANCH   2   4
BRANCH   1  22
ATOM     19  C   UNL     1     -67.727 -57.142 -40.667  0.00  0.00    +0.000 A 
ATOM     20  C   UNL     1     -69.013 -57.646 -40.454  0.00  0.00    +0.000 A 
ATOM     21  C   UNL     1     -67.244 -56.211 -39.738  0.00  0.00    +0.000 A 
ATOM     22  C   UNL     1     -69.273 -56.345 -38.432  0.00  0.00    +0.000 A 
ATOM     23  C   UNL     1     -69.783 -57.251 -39.361  0.00  0.00    +0.000 A 
ATOM     24  C   UNL     1     -68.005 -55.808 -38.642  0.00  0.00    +0.000 A 
BRANCH  19  26
ATOM     25  O   UNL     1     -66.894 -55.426 -42.845  0.00  0.00    +0.000 OA
ATOM     26  N   UNL     1     -66.922 -57.554 -41.795  0.00  0.00    +0.000 N 
ATOM     27  C   UNL     1     -66.583 -56.612 -42.798  0.00  0.00    +0.000 C 
ATOM     28  C   UNL     1     -66.525 -58.965 -41.796  0.00  0.00    +0.000 C 
BRANCH  27  29
ATOM     29  C   UNL     1     -65.777 -57.104 -43.906  0.00  0.00    +0.000 C 
BRANCH  29  30
ATOM     30  N   UNL     1     -64.991 -57.614 -45.028  0.00  0.00    +0.000 N 
ATOM     31  N   UNL     1     -61.777 -58.867 -44.193  0.00  0.00    +0.000 N 
ATOM     32  C   UNL     1     -63.655 -56.961 -44.949  0.00  0.00    +0.000 C 
ATOM     33  C   UNL     1     -64.521 -58.971 -44.633  0.00  0.00    +0.000 C 
ATOM     34  C   UNL     1     -62.246 -57.509 -44.580  0.00  0.00    +0.000 C 
ATOM     35  C   UNL     1     -63.112 -59.519 -44.264  0.00  0.00    +0.000 C 
ATOM     36  C   UNL     1     -61.411 -58.802 -42.785  0.00  0.00    +0.000 C 
ENDBRANCH  29  30
ENDBRANCH  27  29
ENDBRANCH  19  26
ENDBRANCH   1  22
BRANCH   2  37
ATOM     37  C   UNL     1     -69.202 -57.711 -35.917  0.00  0.00    +0.000 A 
ATOM     38  C   UNL     1     -67.853 -57.548 -35.608  0.00  0.00    +0.000 A 
ATOM     39  C   UNL     1     -69.798 -58.972 -35.917  0.00  0.00    +0.000 A 
ATOM     40  C   UNL     1     -67.088 -58.669 -35.303  0.00  0.00    +0.000 A 
ATOM     41  C   UNL     1     -69.024 -60.086 -35.612  0.00  0.00    +0.000 A 
ATOM     42  C   UNL     1     -67.671 -59.935 -35.305  0.00  0.00    +0.000 A 
ENDBRANCH   2  37
TORSDOF 9
ENDMDL
MODEL 6
REMARK VINA RESULT:      -6.2     29.229     38.709
REMARK  Name = 135423438_Nintedanib.pdbqt.pdb
REMARK  9 active torsions:
REMARK  status: ('A' for Active; 'I' for Inactive)
REMARK    1  A    between atoms: N_1  and  C_22
REMARK    2  A    between atoms: C_2  and  C_4
REMARK    3  A    between atoms: C_2  and  C_37
REMARK    4  A    between atoms: C_7  and  O_13
REMARK    5  A    between atoms: C_10  and  C_16
REMARK    6  A    between atoms: C_16  and  O_17
REMARK    7  A    between atoms: C_19  and  N_26
REMARK    8  A    between atoms: C_27  and  C_29
REMARK    9  A    between atoms: C_29  and  N_30
REMARK                            x       y       z     vdW  Elec       q    Type
REMARK                         _______ _______ _______ _____ _____    ______ ____
ROOT
ATOM      1  N   UNL     1     -59.323 -55.007 -25.028  0.00  0.00    +0.000 NA
ATOM      2  C   UNL     1     -58.776 -56.151 -25.325  0.00  0.00    +0.000 C 
ENDROOT
BRANCH   2   4
ATOM      3  N   UNL     1     -56.651 -56.154 -28.309  0.00  0.00    +0.000 N 
ATOM      4  C   UNL     1     -58.144 -56.255 -26.646  0.00  0.00    +0.000 A 
ATOM      5  C   UNL     1     -58.758 -56.714 -27.865  0.00  0.00    +0.000 A 
ATOM      6  C   UNL     1     -57.803 -56.641 -28.876  0.00  0.00    +0.000 A 
ATOM      7  C   UNL     1     -56.838 -55.912 -26.972  0.00  0.00    +0.000 A 
ATOM      8  C   UNL     1     -60.042 -57.194 -28.196  0.00  0.00    +0.000 A 
ATOM      9  C   UNL     1     -58.062 -57.015 -30.199  0.00  0.00    +0.000 A 
ATOM     10  C   UNL     1     -59.348 -57.483 -30.497  0.00  0.00    +0.000 A 
ATOM     11  C   UNL     1     -60.323 -57.573 -29.510  0.00  0.00    +0.000 A 
ATOM     12  H   UNL     1     -55.795 -55.996 -28.818  0.00  0.00    +0.000 HD
BRANCH   7  13
ATOM     13  O   UNL     1     -55.862 -55.420 -26.216  0.00  0.00    +0.000 OA
ATOM     14  H   UNL     1     -54.995 -55.573 -26.630  0.00  0.00    +0.000 HD
ENDBRANCH   7  13
BRANCH  10  16
ATOM     15  O   UNL     1     -59.903 -57.102 -32.773  0.00  0.00    +0.000 OA
ATOM     16  C   UNL     1     -59.713 -57.902 -31.868  0.00  0.00    +0.000 C 
BRANCH  16  17
ATOM     17  O   UNL     1     -59.786 -59.263 -31.904  0.00  0.00    +0.000 OA
ATOM     18  C   UNL     1     -58.899 -59.952 -32.747  0.00  0.00    +0.000 C 
ENDBRANCH  16  17
ENDBRANCH  10  16
ENDBRANCH   2   4
BRANCH   1  22
ATOM     19  C   UNL     1     -61.327 -54.333 -21.363  0.00  0.00    +0.000 A 
ATOM     20  C   UNL     1     -60.007 -53.921 -21.562  0.00  0.00    +0.000 A 
ATOM     21  C   UNL     1     -61.962 -54.981 -22.431  0.00  0.00    +0.000 A 
ATOM     22  C   UNL     1     -59.979 -54.822 -23.806  0.00  0.00    +0.000 A 
ATOM     23  C   UNL     1     -59.341 -54.150 -22.765  0.00  0.00    +0.000 A 
ATOM     24  C   UNL     1     -61.306 -55.215 -23.639  0.00  0.00    +0.000 A 
BRANCH  19  26
ATOM     25  O   UNL     1     -60.826 -55.750 -18.889  0.00  0.00    +0.000 OA
ATOM     26  N   UNL     1     -62.019 -54.104 -20.115  0.00  0.00    +0.000 N 
ATOM     27  C   UNL     1     -61.678 -54.870 -18.972  0.00  0.00    +0.000 C 
ATOM     28  C   UNL     1     -63.054 -53.067 -20.155  0.00  0.00    +0.000 C 
BRANCH  27  29
ATOM     29  C   UNL     1     -62.424 -54.589 -17.754  0.00  0.00    +0.000 C 
BRANCH  29  30
ATOM     30  N   UNL     1     -63.161 -54.331 -16.518  0.00  0.00    +0.000 N 
ATOM     31  N   UNL     1     -66.024 -52.259 -16.855  0.00  0.00    +0.000 N 
ATOM     32  C   UNL     1     -63.342 -52.855 -16.426  0.00  0.00    +0.000 C 
ATOM     33  C   UNL     1     -64.589 -54.642 -16.805  0.00  0.00    +0.000 C 
ATOM     34  C   UNL     1     -64.596 -51.947 -16.576  0.00  0.00    +0.000 C 
ATOM     35  C   UNL     1     -65.844 -53.733 -16.956  0.00  0.00    +0.000 C 
ATOM     36  C   UNL     1     -66.308 -51.775 -18.199  0.00  0.00    +0.000 C 
ENDBRANCH  29  30
ENDBRANCH  27  29
ENDBRANCH  19  26
ENDBRANCH   1  22
BRANCH   2  37
ATOM     37  C   UNL     1     -58.754 -57.330 -24.441  0.00  0.00    +0.000 A 
ATOM     38  C   UNL     1     -59.703 -58.336 -24.614  0.00  0.00    +0.000 A 
ATOM     39  C   UNL     1     -57.760 -57.431 -23.469  0.00  0.00    +0.000 A 
ATOM     40  C   UNL     1     -59.658 -59.458 -23.793  0.00  0.00    +0.000 A 
ATOM     41  C   UNL     1     -57.724 -58.557 -22.652  0.00  0.00    +0.000 A 
ATOM     42  C   UNL     1     -58.671 -59.568 -22.814  0.00  0.00    +0.000 A 
ENDBRANCH   2  37
TORSDOF 9
ENDMDL
MODEL 7
REMARK VINA RESULT:      -6.1      2.956     12.025
REMARK  Name = 135423438_Nintedanib.pdbqt.pdb
REMARK  9 active torsions:
REMARK  status: ('A' for Active; 'I' for Inactive)
REMARK    1  A    between atoms: N_1  and  C_22
REMARK    2  A    between atoms: C_2  and  C_4
REMARK    3  A    between atoms: C_2  and  C_37
REMARK    4  A    between atoms: C_7  and  O_13
REMARK    5  A    between atoms: C_10  and  C_16
REMARK    6  A    between atoms: C_16  and  O_17
REMARK    7  A    between atoms: C_19  and  N_26
REMARK    8  A    between atoms: C_27  and  C_29
REMARK    9  A    between atoms: C_29  and  N_30
REMARK                            x       y       z     vdW  Elec       q    Type
REMARK                         _______ _______ _______ _____ _____    ______ ____
ROOT
ATOM      1  N   UNL     1     -56.988 -58.390 -58.599  0.00  0.00    +0.000 NA
ATOM      2  C   UNL     1     -57.542 -57.886 -59.664  0.00  0.00    +0.000 C 
ENDROOT
BRANCH   2   4
ATOM      3  N   UNL     1     -55.303 -58.231 -62.542  0.00  0.00    +0.000 N 
ATOM      4  C   UNL     1     -56.861 -58.134 -60.941  0.00  0.00    +0.000 A 
ATOM      5  C   UNL     1     -57.438 -58.699 -62.133  0.00  0.00    +0.000 A 
ATOM      6  C   UNL     1     -56.442 -58.747 -63.106  0.00  0.00    +0.000 A 
ATOM      7  C   UNL     1     -55.535 -57.853 -61.244  0.00  0.00    +0.000 A 
ATOM      8  C   UNL     1     -58.720 -59.182 -62.468  0.00  0.00    +0.000 A 
ATOM      9  C   UNL     1     -56.659 -59.245 -64.395  0.00  0.00    +0.000 A 
ATOM     10  C   UNL     1     -57.944 -59.714 -64.699  0.00  0.00    +0.000 A 
ATOM     11  C   UNL     1     -58.959 -59.684 -63.749  0.00  0.00    +0.000 A 
ATOM     12  H   UNL     1     -54.423 -58.142 -63.028  0.00  0.00    +0.000 HD
BRANCH   7  13
ATOM     13  O   UNL     1     -54.578 -57.309 -60.501  0.00  0.00    +0.000 OA
ATOM     14  H   UNL     1     -54.904 -56.511 -60.048  0.00  0.00    +0.000 HD
ENDBRANCH   7  13
BRANCH  10  16
ATOM     15  O   UNL     1     -59.410 -60.500 -66.391  0.00  0.00    +0.000 OA
ATOM     16  C   UNL     1     -58.265 -60.259 -66.036  0.00  0.00    +0.000 C 
BRANCH  16  17
ATOM     17  O   UNL     1     -57.104 -60.421 -66.731  0.00  0.00    +0.000 OA
ATOM     18  C   UNL     1     -56.814 -61.695 -67.247  0.00  0.00    +0.000 C 
ENDBRANCH  16  17
ENDBRANCH  10  16
ENDBRANCH   2   4
BRANCH   1  22
ATOM     19  C   UNL     1     -58.762 -57.693 -54.822  0.00  0.00    +0.000 A 
ATOM     20  C   UNL     1     -58.065 -56.689 -55.499  0.00  0.00    +0.000 A 
ATOM     21  C   UNL     1     -58.848 -58.944 -55.447  0.00  0.00    +0.000 A 
ATOM     22  C   UNL     1     -57.544 -58.178 -57.332  0.00  0.00    +0.000 A 
ATOM     23  C   UNL     1     -57.472 -56.918 -56.740  0.00  0.00    +0.000 A 
ATOM     24  C   UNL     1     -58.259 -59.185 -56.687  0.00  0.00    +0.000 A 
BRANCH  19  26
ATOM     25  O   UNL     1     -57.351 -57.606 -52.295  0.00  0.00    +0.000 OA
ATOM     26  N   UNL     1     -59.372 -57.463 -53.532  0.00  0.00    +0.000 N 
ATOM     27  C   UNL     1     -58.565 -57.445 -52.366  0.00  0.00    +0.000 C 
ATOM     28  C   UNL     1     -60.825 -57.270 -53.554  0.00  0.00    +0.000 C 
BRANCH  27  29
ATOM     29  C   UNL     1     -59.253 -57.215 -51.103  0.00  0.00    +0.000 C 
BRANCH  29  30
ATOM     30  N   UNL     1     -59.934 -57.012 -49.826  0.00  0.00    +0.000 N 
ATOM     31  N   UNL     1     -63.456 -57.455 -49.889  0.00  0.00    +0.000 N 
ATOM     32  C   UNL     1     -61.055 -56.066 -50.083  0.00  0.00    +0.000 C 
ATOM     33  C   UNL     1     -60.793 -58.210 -49.610  0.00  0.00    +0.000 C 
ATOM     34  C   UNL     1     -62.598 -56.260 -50.113  0.00  0.00    +0.000 C 
ATOM     35  C   UNL     1     -62.337 -58.404 -49.641  0.00  0.00    +0.000 C 
ATOM     36  C   UNL     1     -64.032 -57.809 -51.179  0.00  0.00    +0.000 C 
ENDBRANCH  29  30
ENDBRANCH  27  29
ENDBRANCH  19  26
ENDBRANCH   1  22
BRANCH   2  37
ATOM     37  C   UNL     1     -58.784 -57.092 -59.673  0.00  0.00    +0.000 A 
ATOM     38  C   UNL     1     -59.991 -57.702 -59.333  0.00  0.00    +0.000 A 
ATOM     39  C   UNL     1     -58.722 -55.736 -59.990  0.00  0.00    +0.000 A 
ATOM     40  C   UNL     1     -61.154 -56.940 -59.319  0.00  0.00    +0.000 A 
ATOM     41  C   UNL     1     -59.891 -54.983 -59.973  0.00  0.00    +0.000 A 
ATOM     42  C   UNL     1     -61.105 -55.583 -59.638  0.00  0.00    +0.000 A 
ENDBRANCH   2  37
TORSDOF 9
ENDMDL
MODEL 8
REMARK VINA RESULT:      -6.1      2.623     11.515
REMARK  Name = 135423438_Nintedanib.pdbqt.pdb
REMARK  9 active torsions:
REMARK  status: ('A' for Active; 'I' for Inactive)
REMARK    1  A    between atoms: N_1  and  C_22
REMARK    2  A    between atoms: C_2  and  C_4
REMARK    3  A    between atoms: C_2  and  C_37
REMARK    4  A    between atoms: C_7  and  O_13
REMARK    5  A    between atoms: C_10  and  C_16
REMARK    6  A    between atoms: C_16  and  O_17
REMARK    7  A    between atoms: C_19  and  N_26
REMARK    8  A    between atoms: C_27  and  C_29
REMARK    9  A    between atoms: C_29  and  N_30
REMARK                            x       y       z     vdW  Elec       q    Type
REMARK                         _______ _______ _______ _____ _____    ______ ____
ROOT
ATOM      1  N   UNL     1     -58.458 -60.229 -60.341  0.00  0.00    +0.000 NA
ATOM      2  C   UNL     1     -58.802 -59.281 -61.164  0.00  0.00    +0.000 C 
ENDROOT
BRANCH   2   4
ATOM      3  N   UNL     1     -59.723 -60.473 -64.504  0.00  0.00    +0.000 N 
ATOM      4  C   UNL     1     -58.931 -59.653 -62.579  0.00  0.00    +0.000 A 
ATOM      5  C   UNL     1     -57.967 -59.427 -63.623  0.00  0.00    +0.000 A 
ATOM      6  C   UNL     1     -58.492 -59.946 -64.806  0.00  0.00    +0.000 A 
ATOM      7  C   UNL     1     -60.002 -60.310 -63.171  0.00  0.00    +0.000 A 
ATOM      8  C   UNL     1     -56.696 -58.820 -63.671  0.00  0.00    +0.000 A 
ATOM      9  C   UNL     1     -57.814 -59.895 -66.028  0.00  0.00    +0.000 A 
ATOM     10  C   UNL     1     -56.550 -59.289 -66.041  0.00  0.00    +0.000 A 
ATOM     11  C   UNL     1     -56.000 -58.758 -64.880  0.00  0.00    +0.000 A 
ATOM     12  H   UNL     1     -60.326 -60.919 -65.178  0.00  0.00    +0.000 HD
BRANCH   7  13
ATOM     13  O   UNL     1     -61.137 -60.759 -62.643  0.00  0.00    +0.000 OA
ATOM     14  H   UNL     1     -61.054 -60.853 -61.678  0.00  0.00    +0.000 HD
ENDBRANCH   7  13
BRANCH  10  16
ATOM     15  O   UNL     1     -55.433 -60.169 -67.940  0.00  0.00    +0.000 OA
ATOM     16  C   UNL     1     -55.760 -59.189 -67.287  0.00  0.00    +0.000 C 
BRANCH  16  17
ATOM     17  O   UNL     1     -55.498 -57.874 -67.533  0.00  0.00    +0.000 OA
ATOM     18  C   UNL     1     -56.059 -57.289 -68.679  0.00  0.00    +0.000 C 
ENDBRANCH  16  17
ENDBRANCH  10  16
ENDBRANCH   2   4
BRANCH   1  22
ATOM     19  C   UNL     1     -57.914 -59.310 -56.246  0.00  0.00    +0.000 A 
ATOM     20  C   UNL     1     -56.863 -59.222 -57.162  0.00  0.00    +0.000 A 
ATOM     21  C   UNL     1     -59.160 -59.718 -56.741  0.00  0.00    +0.000 A 
ATOM     22  C   UNL     1     -58.277 -59.964 -58.978  0.00  0.00    +0.000 A 
ATOM     23  C   UNL     1     -57.037 -59.532 -58.510  0.00  0.00    +0.000 A 
ATOM     24  C   UNL     1     -59.346 -60.031 -58.087  0.00  0.00    +0.000 A 
BRANCH  19  26
ATOM     25  O   UNL     1     -58.205 -56.681 -55.071  0.00  0.00    +0.000 OA
ATOM     26  N   UNL     1     -57.737 -58.997 -54.846  0.00  0.00    +0.000 N 
ATOM     27  C   UNL     1     -57.908 -57.663 -54.398  0.00  0.00    +0.000 C 
ATOM     28  C   UNL     1     -57.375 -60.132 -53.993  0.00  0.00    +0.000 C 
BRANCH  27  29
ATOM     29  C   UNL     1     -57.705 -57.423 -52.976  0.00  0.00    +0.000 C 
BRANCH  29  30
ATOM     30  N   UNL     1     -57.514 -57.156 -51.552  0.00  0.00    +0.000 N 
ATOM     31  N   UNL     1     -60.492 -56.906 -49.635  0.00  0.00    +0.000 N 
ATOM     32  C   UNL     1     -58.388 -55.999 -51.211  0.00  0.00    +0.000 C 
ATOM     33  C   UNL     1     -58.317 -58.174 -50.819  0.00  0.00    +0.000 C 
ATOM     34  C   UNL     1     -59.695 -55.889 -50.374  0.00  0.00    +0.000 C 
ATOM     35  C   UNL     1     -59.625 -58.064 -49.981  0.00  0.00    +0.000 C 
ATOM     36  C   UNL     1     -61.739 -57.078 -50.367  0.00  0.00    +0.000 C 
ENDBRANCH  29  30
ENDBRANCH  27  29
ENDBRANCH  19  26
ENDBRANCH   1  22
BRANCH   2  37
ATOM     37  C   UNL     1     -59.062 -57.882 -60.780  0.00  0.00    +0.000 A 
ATOM     38  C   UNL     1     -60.341 -57.509 -60.369  0.00  0.00    +0.000 A 
ATOM     39  C   UNL     1     -58.012 -56.965 -60.802  0.00  0.00    +0.000 A 
ATOM     40  C   UNL     1     -60.571 -56.193 -59.983  0.00  0.00    +0.000 A 
ATOM     41  C   UNL     1     -58.253 -55.651 -60.415  0.00  0.00    +0.000 A 
ATOM     42  C   UNL     1     -59.529 -55.266 -60.006  0.00  0.00    +0.000 A 
ENDBRANCH   2  37
TORSDOF 9
ENDMDL
MODEL 9
REMARK VINA RESULT:      -6.0     19.969     28.386
REMARK  Name = 135423438_Nintedanib.pdbqt.pdb
REMARK  9 active torsions:
REMARK  status: ('A' for Active; 'I' for Inactive)
REMARK    1  A    between atoms: N_1  and  C_22
REMARK    2  A    between atoms: C_2  and  C_4
REMARK    3  A    between atoms: C_2  and  C_37
REMARK    4  A    between atoms: C_7  and  O_13
REMARK    5  A    between atoms: C_10  and  C_16
REMARK    6  A    between atoms: C_16  and  O_17
REMARK    7  A    between atoms: C_19  and  N_26
REMARK    8  A    between atoms: C_27  and  C_29
REMARK    9  A    between atoms: C_29  and  N_30
REMARK                            x       y       z     vdW  Elec       q    Type
REMARK                         _______ _______ _______ _____ _____    ______ ____
ROOT
ATOM      1  N   UNL     1     -63.618 -46.596 -39.621  0.00  0.00    +0.000 NA
ATOM      2  C   UNL     1     -63.024 -45.449 -39.780  0.00  0.00    +0.000 C 
ENDROOT
BRANCH   2   4
ATOM      3  N   UNL     1     -62.032 -44.476 -43.170  0.00  0.00    +0.000 N 
ATOM      4  C   UNL     1     -62.402 -45.207 -41.089  0.00  0.00    +0.000 A 
ATOM      5  C   UNL     1     -61.149 -45.734 -41.561  0.00  0.00    +0.000 A 
ATOM      6  C   UNL     1     -60.948 -45.258 -42.856  0.00  0.00    +0.000 A 
ATOM      7  C   UNL     1     -62.918 -44.437 -42.124  0.00  0.00    +0.000 A 
ATOM      8  C   UNL     1     -60.161 -46.569 -41.000  0.00  0.00    +0.000 A 
ATOM      9  C   UNL     1     -59.820 -45.575 -43.619  0.00  0.00    +0.000 A 
ATOM     10  C   UNL     1     -58.859 -46.410 -43.034  0.00  0.00    +0.000 A 
ATOM     11  C   UNL     1     -59.026 -46.898 -41.743  0.00  0.00    +0.000 A 
ATOM     12  H   UNL     1     -62.150 -44.005 -44.055  0.00  0.00    +0.000 HD
BRANCH   7  13
ATOM     13  O   UNL     1     -64.053 -43.752 -42.205  0.00  0.00    +0.000 OA
ATOM     14  H   UNL     1     -64.219 -43.466 -43.121  0.00  0.00    +0.000 HD
ENDBRANCH   7  13
BRANCH  10  16
ATOM     15  O   UNL     1     -56.589 -47.082 -43.196  0.00  0.00    +0.000 OA
ATOM     16  C   UNL     1     -57.633 -46.798 -43.765  0.00  0.00    +0.000 C 
BRANCH  16  17
ATOM     17  O   UNL     1     -57.897 -46.774 -45.102  0.00  0.00    +0.000 OA
ATOM     18  C   UNL     1     -56.828 -46.543 -45.984  0.00  0.00    +0.000 C 
ENDBRANCH  16  17
ENDBRANCH  10  16
ENDBRANCH   2   4
BRANCH   1  22
ATOM     19  C   UNL     1     -65.439 -47.720 -35.970  0.00  0.00    +0.000 A 
ATOM     20  C   UNL     1     -66.194 -47.273 -37.057  0.00  0.00    +0.000 A 
ATOM     21  C   UNL     1     -64.049 -47.780 -36.139  0.00  0.00    +0.000 A 
ATOM     22  C   UNL     1     -64.210 -46.933 -38.398  0.00  0.00    +0.000 A 
ATOM     23  C   UNL     1     -65.597 -46.893 -38.259  0.00  0.00    +0.000 A 
ATOM     24  C   UNL     1     -63.441 -47.404 -37.336  0.00  0.00    +0.000 A 
BRANCH  19  26
ATOM     25  O   UNL     1     -65.311 -46.209 -33.504  0.00  0.00    +0.000 OA
ATOM     26  N   UNL     1     -66.054 -48.107 -34.721  0.00  0.00    +0.000 N 
ATOM     27  C   UNL     1     -65.915 -47.275 -33.582  0.00  0.00    +0.000 C 
ATOM     28  C   UNL     1     -66.784 -49.377 -34.751  0.00  0.00    +0.000 C 
BRANCH  27  29
ATOM     29  C   UNL     1     -66.555 -47.735 -32.357  0.00  0.00    +0.000 C 
BRANCH  29  30
ATOM     30  N   UNL     1     -67.216 -48.174 -31.130  0.00  0.00    +0.000 N 
ATOM     31  N   UNL     1     -65.187 -48.160 -28.217  0.00  0.00    +0.000 N 
ATOM     32  C   UNL     1     -66.341 -49.212 -30.518  0.00  0.00    +0.000 C 
ATOM     33  C   UNL     1     -66.947 -47.125 -30.107  0.00  0.00    +0.000 C 
ATOM     34  C   UNL     1     -65.449 -49.206 -29.243  0.00  0.00    +0.000 C 
ATOM     35  C   UNL     1     -66.054 -47.119 -28.831  0.00  0.00    +0.000 C 
ATOM     36  C   UNL     1     -63.809 -47.725 -28.400  0.00  0.00    +0.000 C 
ENDBRANCH  29  30
ENDBRANCH  27  29
ENDBRANCH  19  26
ENDBRANCH   1  22
BRANCH   2  37
ATOM     37  C   UNL     1     -62.929 -44.397 -38.753  0.00  0.00    +0.000 A 
ATOM     38  C   UNL     1     -61.758 -44.267 -38.009  0.00  0.00    +0.000 A 
ATOM     39  C   UNL     1     -64.005 -43.530 -38.569  0.00  0.00    +0.000 A 
ATOM     40  C   UNL     1     -61.668 -43.254 -37.059  0.00  0.00    +0.000 A 
ATOM     41  C   UNL     1     -63.905 -42.521 -37.616  0.00  0.00    +0.000 A 
ATOM     42  C   UNL     1     -62.739 -42.383 -36.863  0.00  0.00    +0.000 A 
ENDBRANCH   2  37
TORSDOF 9
ENDMDL
