MODEL 1
REMARK VINA RESULT:      -7.0      0.000      0.000
REMARK  Name = 14132199_RiccardinD.pdbqt.pdb
REMARK  3 active torsions:
REMARK  status: ('A' for Active; 'I' for Inactive)
REMARK    1  A    between atoms: C_11  and  O_30
REMARK    2  A    between atoms: C_16  and  O_32
REMARK    3  A    between atoms: C_28  and  O_34
REMARK                            x       y       z     vdW  Elec       q    Type
REMARK                         _______ _______ _______ _____ _____    ______ ____
ROOT
ATOM      1  O   UNL     1     -57.384 -61.038 -65.683  0.00  0.00    +0.000 OA
ATOM      2  C   UNL     1     -60.645 -58.635 -60.031  0.00  0.00    +0.000 C 
ATOM      3  C   UNL     1     -60.888 -57.738 -58.937  0.00  0.00    +0.000 A 
ATOM      4  C   UNL     1     -60.040 -56.630 -58.681  0.00  0.00    +0.000 A 
ATOM      5  C   UNL     1     -60.261 -59.480 -61.255  0.00  0.00    +0.000 C 
ATOM      6  C   UNL     1     -55.767 -56.612 -62.344  0.00  0.00    +0.000 C 
ATOM      7  C   UNL     1     -58.796 -56.432 -59.459  0.00  0.00    +0.000 A 
ATOM      8  C   UNL     1     -56.585 -56.369 -61.203  0.00  0.00    +0.000 A 
ATOM      9  C   UNL     1     -55.244 -57.261 -63.628  0.00  0.00    +0.000 C 
ATOM     10  C   UNL     1     -59.744 -60.117 -62.423  0.00  0.00    +0.000 A 
ATOM     11  C   UNL     1     -58.587 -55.353 -60.330  0.00  0.00    +0.000 A 
ATOM     12  C   UNL     1     -55.217 -58.192 -64.701  0.00  0.00    +0.000 A 
ATOM     13  C   UNL     1     -57.799 -57.416 -59.403  0.00  0.00    +0.000 A 
ATOM     14  C   UNL     1     -57.506 -55.326 -61.213  0.00  0.00    +0.000 A 
ATOM     15  C   UNL     1     -56.710 -57.395 -60.269  0.00  0.00    +0.000 A 
ATOM     16  C   UNL     1     -60.429 -55.753 -57.652  0.00  0.00    +0.000 A 
ATOM     17  C   UNL     1     -62.027 -57.966 -58.161  0.00  0.00    +0.000 A 
ATOM     18  C   UNL     1     -61.557 -55.996 -56.868  0.00  0.00    +0.000 A 
ATOM     19  C   UNL     1     -62.351 -57.109 -57.117  0.00  0.00    +0.000 A 
ATOM     20  C   UNL     1     -56.251 -59.123 -64.705  0.00  0.00    +0.000 A 
ATOM     21  C   UNL     1     -58.744 -61.082 -62.296  0.00  0.00    +0.000 A 
ATOM     22  C   UNL     1     -60.084 -59.619 -63.681  0.00  0.00    +0.000 A 
ATOM     23  C   UNL     1     -56.357 -60.108 -65.680  0.00  0.00    +0.000 A 
ATOM     24  C   UNL     1     -54.252 -58.231 -65.697  0.00  0.00    +0.000 A 
ATOM     25  C   UNL     1     -58.295 -60.898 -64.652  0.00  0.00    +0.000 A 
ATOM     26  C   UNL     1     -58.021 -61.486 -63.416  0.00  0.00    +0.000 A 
ATOM     27  C   UNL     1     -59.366 -60.018 -64.807  0.00  0.00    +0.000 A 
ATOM     28  C   UNL     1     -55.389 -60.145 -66.677  0.00  0.00    +0.000 A 
ATOM     29  C   UNL     1     -54.344 -59.215 -66.689  0.00  0.00    +0.000 A 
ENDROOT
BRANCH  11  30
ATOM     30  O   UNL     1     -59.474 -54.308 -60.330  0.00  0.00    +0.000 OA
ATOM     31  H   UNL     1     -59.035 -53.537 -60.739  0.00  0.00    +0.000 HD
ENDBRANCH  11  30
BRANCH  16  32
ATOM     32  O   UNL     1     -59.741 -54.602 -57.372  0.00  0.00    +0.000 OA
ATOM     33  H   UNL     1     -60.408 -53.914 -57.187  0.00  0.00    +0.000 HD
ENDBRANCH  16  32
BRANCH  28  34
ATOM     34  O   UNL     1     -55.427 -61.083 -67.670  0.00  0.00    +0.000 OA
ATOM     35  H   UNL     1     -55.127 -61.926 -67.284  0.00  0.00    +0.000 HD
ENDBRANCH  28  34
TORSDOF 3
ENDMDL
MODEL 2
REMARK VINA RESULT:      -6.9      3.694      6.353
REMARK  Name = 14132199_RiccardinD.pdbqt.pdb
REMARK  3 active torsions:
REMARK  status: ('A' for Active; 'I' for Inactive)
REMARK    1  A    between atoms: C_11  and  O_30
REMARK    2  A    between atoms: C_16  and  O_32
REMARK    3  A    between atoms: C_28  and  O_34
REMARK                            x       y       z     vdW  Elec       q    Type
REMARK                         _______ _______ _______ _____ _____    ______ ____
ROOT
ATOM      1  O   UNL     1     -53.266 -57.417 -70.886  0.00  0.00    +0.000 OA
ATOM      2  C   UNL     1     -56.685 -59.033 -65.049  0.00  0.00    +0.000 C 
ATOM      3  C   UNL     1     -56.964 -59.010 -63.642  0.00  0.00    +0.000 A 
ATOM      4  C   UNL     1     -56.134 -58.306 -62.731  0.00  0.00    +0.000 A 
ATOM      5  C   UNL     1     -56.263 -58.936 -66.524  0.00  0.00    +0.000 C 
ATOM      6  C   UNL     1     -51.778 -56.038 -65.479  0.00  0.00    +0.000 C 
ATOM      7  C   UNL     1     -54.875 -57.674 -63.185  0.00  0.00    +0.000 A 
ATOM      8  C   UNL     1     -52.625 -56.552 -64.455  0.00  0.00    +0.000 A 
ATOM      9  C   UNL     1     -51.218 -55.750 -66.874  0.00  0.00    +0.000 C 
ATOM     10  C   UNL     1     -55.712 -58.711 -67.821  0.00  0.00    +0.000 A 
ATOM     11  C   UNL     1     -54.659 -56.288 -63.191  0.00  0.00    +0.000 A 
ATOM     12  C   UNL     1     -51.155 -55.812 -68.293  0.00  0.00    +0.000 A 
ATOM     13  C   UNL     1     -53.869 -58.485 -63.729  0.00  0.00    +0.000 A 
ATOM     14  C   UNL     1     -53.557 -55.724 -63.838  0.00  0.00    +0.000 A 
ATOM     15  C   UNL     1     -52.760 -57.935 -64.365  0.00  0.00    +0.000 A 
ATOM     16  C   UNL     1     -56.558 -58.257 -61.391  0.00  0.00    +0.000 A 
ATOM     17  C   UNL     1     -58.118 -59.665 -63.206  0.00  0.00    +0.000 A 
ATOM     18  C   UNL     1     -57.700 -58.929 -60.956  0.00  0.00    +0.000 A 
ATOM     19  C   UNL     1     -58.476 -59.641 -61.863  0.00  0.00    +0.000 A 
ATOM     20  C   UNL     1     -52.177 -56.533 -68.900  0.00  0.00    +0.000 A 
ATOM     21  C   UNL     1     -54.704 -59.551 -68.297  0.00  0.00    +0.000 A 
ATOM     22  C   UNL     1     -56.028 -57.537 -68.505  0.00  0.00    +0.000 A 
ATOM     23  C   UNL     1     -52.250 -56.697 -70.278  0.00  0.00    +0.000 A 
ATOM     24  C   UNL     1     -50.167 -55.228 -69.071  0.00  0.00    +0.000 A 
ATOM     25  C   UNL     1     -54.202 -57.945 -70.015  0.00  0.00    +0.000 A 
ATOM     26  C   UNL     1     -53.950 -59.175 -69.406  0.00  0.00    +0.000 A 
ATOM     27  C   UNL     1     -55.279 -57.153 -69.615  0.00  0.00    +0.000 A 
ATOM     28  C   UNL     1     -51.258 -56.111 -71.058  0.00  0.00    +0.000 A 
ATOM     29  C   UNL     1     -50.224 -55.381 -70.462  0.00  0.00    +0.000 A 
ENDROOT
BRANCH  11  30
ATOM     30  O   UNL     1     -55.557 -55.465 -62.564  0.00  0.00    +0.000 OA
ATOM     31  H   UNL     1     -55.189 -55.221 -61.693  0.00  0.00    +0.000 HD
ENDBRANCH  11  30
BRANCH  16  32
ATOM     32  O   UNL     1     -55.890 -57.534 -60.438  0.00  0.00    +0.000 OA
ATOM     33  H   UNL     1     -55.114 -57.137 -60.879  0.00  0.00    +0.000 HD
ENDBRANCH  16  32
BRANCH  28  34
ATOM     34  O   UNL     1     -51.263 -56.229 -72.419  0.00  0.00    +0.000 OA
ATOM     35  H   UNL     1     -51.080 -57.162 -72.630  0.00  0.00    +0.000 HD
ENDBRANCH  28  34
TORSDOF 3
ENDMDL
MODEL 3
REMARK VINA RESULT:      -6.7     15.539     17.826
REMARK  Name = 14132199_RiccardinD.pdbqt.pdb
REMARK  3 active torsions:
REMARK  status: ('A' for Active; 'I' for Inactive)
REMARK    1  A    between atoms: C_11  and  O_30
REMARK    2  A    between atoms: C_16  and  O_32
REMARK    3  A    between atoms: C_28  and  O_34
REMARK                            x       y       z     vdW  Elec       q    Type
REMARK                         _______ _______ _______ _____ _____    ______ ____
ROOT
ATOM      1  O   UNL     1     -64.400 -58.245 -80.611  0.00  0.00    +0.000 OA
ATOM      2  C   UNL     1     -70.128 -57.234 -76.800  0.00  0.00    +0.000 C 
ATOM      3  C   UNL     1     -70.984 -57.366 -75.656  0.00  0.00    +0.000 A 
ATOM      4  C   UNL     1     -70.622 -58.173 -74.546  0.00  0.00    +0.000 A 
ATOM      5  C   UNL     1     -69.088 -57.177 -77.931  0.00  0.00    +0.000 C 
ATOM      6  C   UNL     1     -65.704 -60.715 -75.557  0.00  0.00    +0.000 C 
ATOM      7  C   UNL     1     -69.402 -59.010 -74.583  0.00  0.00    +0.000 A 
ATOM      8  C   UNL     1     -66.980 -60.379 -75.016  0.00  0.00    +0.000 A 
ATOM      9  C   UNL     1     -64.511 -60.751 -76.516  0.00  0.00    +0.000 C 
ATOM     10  C   UNL     1     -67.999 -57.251 -78.849  0.00  0.00    +0.000 A 
ATOM     11  C   UNL     1     -68.289 -58.798 -73.756  0.00  0.00    +0.000 A 
ATOM     12  C   UNL     1     -63.765 -60.429 -77.681  0.00  0.00    +0.000 A 
ATOM     13  C   UNL     1     -69.301 -60.016 -75.554  0.00  0.00    +0.000 A 
ATOM     14  C   UNL     1     -67.078 -59.457 -73.979  0.00  0.00    +0.000 A 
ATOM     15  C   UNL     1     -68.103 -60.688 -75.778  0.00  0.00    +0.000 A 
ATOM     16  C   UNL     1     -71.482 -58.147 -73.432  0.00  0.00    +0.000 A 
ATOM     17  C   UNL     1     -72.169 -56.627 -75.652  0.00  0.00    +0.000 A 
ATOM     18  C   UNL     1     -72.674 -57.423 -73.441  0.00  0.00    +0.000 A 
ATOM     19  C   UNL     1     -73.022 -56.670 -74.556  0.00  0.00    +0.000 A 
ATOM     20  C   UNL     1     -64.381 -59.536 -78.551  0.00  0.00    +0.000 A 
ATOM     21  C   UNL     1     -67.955 -58.285 -79.785  0.00  0.00    +0.000 A 
ATOM     22  C   UNL     1     -66.890 -56.424 -78.663  0.00  0.00    +0.000 A 
ATOM     23  C   UNL     1     -63.786 -59.132 -79.741  0.00  0.00    +0.000 A 
ATOM     24  C   UNL     1     -62.514 -60.941 -77.991  0.00  0.00    +0.000 A 
ATOM     25  C   UNL     1     -65.638 -57.789 -80.196  0.00  0.00    +0.000 A 
ATOM     26  C   UNL     1     -66.774 -58.552 -80.472  0.00  0.00    +0.000 A 
ATOM     27  C   UNL     1     -65.704 -56.684 -79.347  0.00  0.00    +0.000 A 
ATOM     28  C   UNL     1     -62.533 -59.647 -80.051  0.00  0.00    +0.000 A 
ATOM     29  C   UNL     1     -61.898 -60.544 -79.185  0.00  0.00    +0.000 A 
ENDROOT
BRANCH  11  30
ATOM     30  O   UNL     1     -68.383 -57.911 -72.716  0.00  0.00    +0.000 OA
ATOM     31  H   UNL     1     -68.777 -57.085 -73.057  0.00  0.00    +0.000 HD
ENDBRANCH  11  30
BRANCH  16  32
ATOM     32  O   UNL     1     -71.193 -58.812 -72.270  0.00  0.00    +0.000 OA
ATOM     33  H   UNL     1     -70.575 -59.530 -72.503  0.00  0.00    +0.000 HD
ENDBRANCH  16  32
BRANCH  28  34
ATOM     34  O   UNL     1     -61.885 -59.295 -81.202  0.00  0.00    +0.000 OA
ATOM     35  H   UNL     1     -62.566 -59.126 -81.878  0.00  0.00    +0.000 HD
ENDBRANCH  28  34
TORSDOF 3
ENDMDL
MODEL 4
REMARK VINA RESULT:      -6.6     28.252     33.057
REMARK  Name = 14132199_RiccardinD.pdbqt.pdb
REMARK  3 active torsions:
REMARK  status: ('A' for Active; 'I' for Inactive)
REMARK    1  A    between atoms: C_11  and  O_30
REMARK    2  A    between atoms: C_16  and  O_32
REMARK    3  A    between atoms: C_28  and  O_34
REMARK                            x       y       z     vdW  Elec       q    Type
REMARK                         _______ _______ _______ _____ _____    ______ ____
ROOT
ATOM      1  O   UNL     1     -69.433 -48.477 -28.736  0.00  0.00    +0.000 OA
ATOM      2  C   UNL     1     -64.669 -46.609 -33.445  0.00  0.00    +0.000 C 
ATOM      3  C   UNL     1     -64.136 -46.398 -34.761  0.00  0.00    +0.000 A 
ATOM      4  C   UNL     1     -64.869 -46.745 -35.925  0.00  0.00    +0.000 A 
ATOM      5  C   UNL     1     -65.393 -46.875 -32.116  0.00  0.00    +0.000 C 
ATOM      6  C   UNL     1     -69.750 -49.135 -34.464  0.00  0.00    +0.000 C 
ATOM      7  C   UNL     1     -66.162 -47.457 -35.822  0.00  0.00    +0.000 A 
ATOM      8  C   UNL     1     -68.600 -48.722 -35.198  0.00  0.00    +0.000 A 
ATOM      9  C   UNL     1     -70.676 -49.417 -33.278  0.00  0.00    +0.000 C 
ATOM     10  C   UNL     1     -66.235 -47.186 -31.007  0.00  0.00    +0.000 A 
ATOM     11  C   UNL     1     -67.391 -46.897 -36.203  0.00  0.00    +0.000 A 
ATOM     12  C   UNL     1     -71.069 -49.467 -31.914  0.00  0.00    +0.000 A 
ATOM     13  C   UNL     1     -66.190 -48.727 -35.228  0.00  0.00    +0.000 A 
ATOM     14  C   UNL     1     -68.604 -47.508 -35.877  0.00  0.00    +0.000 A 
ATOM     15  C   UNL     1     -67.392 -49.351 -34.909  0.00  0.00    +0.000 A 
ATOM     16  C   UNL     1     -64.300 -46.396 -37.163  0.00  0.00    +0.000 A 
ATOM     17  C   UNL     1     -62.883 -45.786 -34.855  0.00  0.00    +0.000 A 
ATOM     18  C   UNL     1     -63.041 -45.803 -37.253  0.00  0.00    +0.000 A 
ATOM     19  C   UNL     1     -62.328 -45.507 -36.097  0.00  0.00    +0.000 A 
ATOM     20  C   UNL     1     -70.135 -48.974 -31.010  0.00  0.00    +0.000 A 
ATOM     21  C   UNL     1     -66.221 -48.474 -30.470  0.00  0.00    +0.000 A 
ATOM     22  C   UNL     1     -67.213 -46.272 -30.613  0.00  0.00    +0.000 A 
ATOM     23  C   UNL     1     -70.364 -48.965 -29.639  0.00  0.00    +0.000 A 
ATOM     24  C   UNL     1     -72.277 -49.967 -31.452  0.00  0.00    +0.000 A 
ATOM     25  C   UNL     1     -68.271 -47.992 -29.307  0.00  0.00    +0.000 A 
ATOM     26  C   UNL     1     -67.235 -48.880 -29.606  0.00  0.00    +0.000 A 
ATOM     27  C   UNL     1     -68.232 -46.669 -29.749  0.00  0.00    +0.000 A 
ATOM     28  C   UNL     1     -71.575 -49.467 -29.177  0.00  0.00    +0.000 A 
ATOM     29  C   UNL     1     -72.527 -49.965 -30.073  0.00  0.00    +0.000 A 
ENDROOT
BRANCH  11  30
ATOM     30  O   UNL     1     -67.404 -45.715 -36.895  0.00  0.00    +0.000 OA
ATOM     31  H   UNL     1     -66.559 -45.636 -37.378  0.00  0.00    +0.000 HD
ENDBRANCH  11  30
BRANCH  16  32
ATOM     32  O   UNL     1     -64.953 -46.598 -38.351  0.00  0.00    +0.000 OA
ATOM     33  H   UNL     1     -65.287 -45.727 -38.639  0.00  0.00    +0.000 HD
ENDBRANCH  16  32
BRANCH  28  34
ATOM     34  O   UNL     1     -71.872 -49.491 -27.843  0.00  0.00    +0.000 OA
ATOM     35  H   UNL     1     -71.613 -48.628 -27.473  0.00  0.00    +0.000 HD
ENDBRANCH  28  34
TORSDOF 3
ENDMDL
MODEL 5
REMARK VINA RESULT:      -6.5      4.222      6.222
REMARK  Name = 14132199_RiccardinD.pdbqt.pdb
REMARK  3 active torsions:
REMARK  status: ('A' for Active; 'I' for Inactive)
REMARK    1  A    between atoms: C_11  and  O_30
REMARK    2  A    between atoms: C_16  and  O_32
REMARK    3  A    between atoms: C_28  and  O_34
REMARK                            x       y       z     vdW  Elec       q    Type
REMARK                         _______ _______ _______ _____ _____    ______ ____
ROOT
ATOM      1  O   UNL     1     -53.604 -58.380 -56.553  0.00  0.00    +0.000 OA
ATOM      2  C   UNL     1     -60.315 -56.889 -55.506  0.00  0.00    +0.000 C 
ATOM      3  C   UNL     1     -61.671 -56.606 -55.881  0.00  0.00    +0.000 A 
ATOM      4  C   UNL     1     -62.060 -56.501 -57.242  0.00  0.00    +0.000 A 
ATOM      5  C   UNL     1     -58.833 -57.224 -55.276  0.00  0.00    +0.000 C 
ATOM      6  C   UNL     1     -57.560 -57.116 -60.565  0.00  0.00    +0.000 C 
ATOM      7  C   UNL     1     -61.052 -56.553 -58.325  0.00  0.00    +0.000 A 
ATOM      8  C   UNL     1     -58.856 -56.784 -60.072  0.00  0.00    +0.000 A 
ATOM      9  C   UNL     1     -56.082 -57.515 -60.574  0.00  0.00    +0.000 C 
ATOM     10  C   UNL     1     -57.443 -57.545 -55.282  0.00  0.00    +0.000 A 
ATOM     11  C   UNL     1     -60.980 -57.587 -59.270  0.00  0.00    +0.000 A 
ATOM     12  C   UNL     1     -54.825 -57.875 -60.018  0.00  0.00    +0.000 A 
ATOM     13  C   UNL     1     -60.051 -55.573 -58.365  0.00  0.00    +0.000 A 
ATOM     14  C   UNL     1     -59.883 -57.720 -60.125  0.00  0.00    +0.000 A 
ATOM     15  C   UNL     1     -58.959 -55.687 -59.220  0.00  0.00    +0.000 A 
ATOM     16  C   UNL     1     -63.432 -56.328 -57.501  0.00  0.00    +0.000 A 
ATOM     17  C   UNL     1     -62.610 -56.489 -54.854  0.00  0.00    +0.000 A 
ATOM     18  C   UNL     1     -64.363 -56.192 -56.471  0.00  0.00    +0.000 A 
ATOM     19  C   UNL     1     -63.950 -56.263 -55.146  0.00  0.00    +0.000 A 
ATOM     20  C   UNL     1     -54.795 -57.965 -58.631  0.00  0.00    +0.000 A 
ATOM     21  C   UNL     1     -56.498 -56.519 -55.334  0.00  0.00    +0.000 A 
ATOM     22  C   UNL     1     -57.048 -58.873 -55.454  0.00  0.00    +0.000 A 
ATOM     23  C   UNL     1     -53.637 -58.293 -57.935  0.00  0.00    +0.000 A 
ATOM     24  C   UNL     1     -53.672 -58.119 -60.750  0.00  0.00    +0.000 A 
ATOM     25  C   UNL     1     -54.812 -58.128 -55.928  0.00  0.00    +0.000 A 
ATOM     26  C   UNL     1     -55.172 -56.809 -55.647  0.00  0.00    +0.000 A 
ATOM     27  C   UNL     1     -55.724 -59.172 -55.768  0.00  0.00    +0.000 A 
ATOM     28  C   UNL     1     -52.482 -58.538 -58.669  0.00  0.00    +0.000 A 
ATOM     29  C   UNL     1     -52.496 -58.453 -60.066  0.00  0.00    +0.000 A 
ENDROOT
BRANCH  11  30
ATOM     30  O   UNL     1     -62.000 -58.499 -59.347  0.00  0.00    +0.000 OA
ATOM     31  H   UNL     1     -62.611 -58.335 -58.603  0.00  0.00    +0.000 HD
ENDBRANCH  11  30
BRANCH  16  32
ATOM     32  O   UNL     1     -63.938 -56.303 -58.774  0.00  0.00    +0.000 OA
ATOM     33  H   UNL     1     -64.657 -55.643 -58.777  0.00  0.00    +0.000 HD
ENDBRANCH  16  32
BRANCH  28  34
ATOM     34  O   UNL     1     -51.307 -58.867 -58.056  0.00  0.00    +0.000 OA
ATOM     35  H   UNL     1     -51.197 -59.832 -58.137  0.00  0.00    +0.000 HD
ENDBRANCH  28  34
TORSDOF 3
ENDMDL
MODEL 6
REMARK VINA RESULT:      -6.3     16.003     21.733
REMARK  Name = 14132199_RiccardinD.pdbqt.pdb
REMARK  3 active torsions:
REMARK  status: ('A' for Active; 'I' for Inactive)
REMARK    1  A    between atoms: C_11  and  O_30
REMARK    2  A    between atoms: C_16  and  O_32
REMARK    3  A    between atoms: C_28  and  O_34
REMARK                            x       y       z     vdW  Elec       q    Type
REMARK                         _______ _______ _______ _____ _____    ______ ____
ROOT
ATOM      1  O   UNL     1     -47.820 -64.250 -76.221  0.00  0.00    +0.000 OA
ATOM      2  C   UNL     1     -46.726 -60.962 -82.250  0.00  0.00    +0.000 C 
ATOM      3  C   UNL     1     -46.962 -59.985 -83.274  0.00  0.00    +0.000 A 
ATOM      4  C   UNL     1     -48.043 -59.070 -83.193  0.00  0.00    +0.000 A 
ATOM      5  C   UNL     1     -46.596 -61.924 -81.058  0.00  0.00    +0.000 C 
ATOM      6  C   UNL     1     -51.090 -60.116 -78.580  0.00  0.00    +0.000 C 
ATOM      7  C   UNL     1     -49.044 -59.173 -82.109  0.00  0.00    +0.000 A 
ATOM      8  C   UNL     1     -50.672 -59.655 -79.862  0.00  0.00    +0.000 A 
ATOM      9  C   UNL     1     -51.114 -60.918 -77.276  0.00  0.00    +0.000 C 
ATOM     10  C   UNL     1     -46.648 -62.708 -79.867  0.00  0.00    +0.000 A 
ATOM     11  C   UNL     1     -49.212 -58.202 -81.110  0.00  0.00    +0.000 A 
ATOM     12  C   UNL     1     -50.673 -61.882 -76.330  0.00  0.00    +0.000 A 
ATOM     13  C   UNL     1     -49.813 -60.341 -82.007  0.00  0.00    +0.000 A 
ATOM     14  C   UNL     1     -49.999 -58.443 -79.983  0.00  0.00    +0.000 A 
ATOM     15  C   UNL     1     -50.611 -60.588 -80.894  0.00  0.00    +0.000 A 
ATOM     16  C   UNL     1     -48.119 -58.085 -84.195  0.00  0.00    +0.000 A 
ATOM     17  C   UNL     1     -46.053 -59.934 -84.334  0.00  0.00    +0.000 A 
ATOM     18  C   UNL     1     -47.221 -58.050 -85.261  0.00  0.00    +0.000 A 
ATOM     19  C   UNL     1     -46.192 -58.981 -85.335  0.00  0.00    +0.000 A 
ATOM     20  C   UNL     1     -49.519 -62.574 -76.683  0.00  0.00    +0.000 A 
ATOM     21  C   UNL     1     -47.442 -63.855 -79.830  0.00  0.00    +0.000 A 
ATOM     22  C   UNL     1     -46.082 -62.207 -78.694  0.00  0.00    +0.000 A 
ATOM     23  C   UNL     1     -48.968 -63.558 -75.870  0.00  0.00    +0.000 A 
ATOM     24  C   UNL     1     -51.308 -62.167 -75.130  0.00  0.00    +0.000 A 
ATOM     25  C   UNL     1     -47.266 -63.876 -77.431  0.00  0.00    +0.000 A 
ATOM     26  C   UNL     1     -47.746 -64.452 -78.609  0.00  0.00    +0.000 A 
ATOM     27  C   UNL     1     -46.381 -62.799 -77.468  0.00  0.00    +0.000 A 
ATOM     28  C   UNL     1     -49.605 -63.843 -74.668  0.00  0.00    +0.000 A 
ATOM     29  C   UNL     1     -50.766 -63.155 -74.297  0.00  0.00    +0.000 A 
ENDROOT
BRANCH  11  30
ATOM     30  O   UNL     1     -48.574 -56.996 -81.232  0.00  0.00    +0.000 OA
ATOM     31  H   UNL     1     -48.284 -56.898 -82.160  0.00  0.00    +0.000 HD
ENDBRANCH  11  30
BRANCH  16  32
ATOM     32  O   UNL     1     -49.064 -57.093 -84.175  0.00  0.00    +0.000 OA
ATOM     33  H   UNL     1     -49.685 -57.281 -84.903  0.00  0.00    +0.000 HD
ENDBRANCH  16  32
BRANCH  28  34
ATOM     34  O   UNL     1     -49.123 -64.796 -73.816  0.00  0.00    +0.000 OA
ATOM     35  H   UNL     1     -48.152 -64.795 -73.900  0.00  0.00    +0.000 HD
ENDBRANCH  28  34
TORSDOF 3
ENDMDL
MODEL 7
REMARK VINA RESULT:      -6.3     36.216     40.639
REMARK  Name = 14132199_RiccardinD.pdbqt.pdb
REMARK  3 active torsions:
REMARK  status: ('A' for Active; 'I' for Inactive)
REMARK    1  A    between atoms: C_11  and  O_30
REMARK    2  A    between atoms: C_16  and  O_32
REMARK    3  A    between atoms: C_28  and  O_34
REMARK                            x       y       z     vdW  Elec       q    Type
REMARK                         _______ _______ _______ _____ _____    ______ ____
ROOT
ATOM      1  O   UNL     1     -72.413 -61.406 -27.353  0.00  0.00    +0.000 OA
ATOM      2  C   UNL     1     -73.022 -56.986 -22.019  0.00  0.00    +0.000 C 
ATOM      3  C   UNL     1     -73.605 -55.917 -21.260  0.00  0.00    +0.000 A 
ATOM      4  C   UNL     1     -74.721 -55.185 -21.742  0.00  0.00    +0.000 A 
ATOM      5  C   UNL     1     -72.536 -58.116 -22.941  0.00  0.00    +0.000 C 
ATOM      6  C   UNL     1     -76.115 -57.000 -26.884  0.00  0.00    +0.000 C 
ATOM      7  C   UNL     1     -75.247 -55.416 -23.107  0.00  0.00    +0.000 A 
ATOM      8  C   UNL     1     -75.985 -56.206 -25.707  0.00  0.00    +0.000 A 
ATOM      9  C   UNL     1     -75.850 -58.100 -27.914  0.00  0.00    +0.000 C 
ATOM     10  C   UNL     1     -72.255 -59.109 -23.925  0.00  0.00    +0.000 A 
ATOM     11  C   UNL     1     -76.515 -55.953 -23.371  0.00  0.00    +0.000 A 
ATOM     12  C   UNL     1     -75.202 -59.234 -28.474  0.00  0.00    +0.000 A 
ATOM     13  C   UNL     1     -74.408 -55.175 -24.204  0.00  0.00    +0.000 A 
ATOM     14  C   UNL     1     -76.880 -56.368 -24.654  0.00  0.00    +0.000 A 
ATOM     15  C   UNL     1     -74.765 -55.572 -25.489  0.00  0.00    +0.000 A 
ATOM     16  C   UNL     1     -75.281 -54.231 -20.873  0.00  0.00    +0.000 A 
ATOM     17  C   UNL     1     -73.063 -55.655 -19.999  0.00  0.00    +0.000 A 
ATOM     18  C   UNL     1     -74.725 -53.960 -19.623  0.00  0.00    +0.000 A 
ATOM     19  C   UNL     1     -73.610 -54.667 -19.190  0.00  0.00    +0.000 A 
ATOM     20  C   UNL     1     -74.176 -59.770 -27.703  0.00  0.00    +0.000 A 
ATOM     21  C   UNL     1     -71.419 -58.799 -24.999  0.00  0.00    +0.000 A 
ATOM     22  C   UNL     1     -72.983 -60.300 -23.923  0.00  0.00    +0.000 A 
ATOM     23  C   UNL     1     -73.437 -60.872 -28.118  0.00  0.00    +0.000 A 
ATOM     24  C   UNL     1     -75.515 -59.806 -29.698  0.00  0.00    +0.000 A 
ATOM     25  C   UNL     1     -72.196 -60.765 -26.147  0.00  0.00    +0.000 A 
ATOM     26  C   UNL     1     -71.377 -59.635 -26.113  0.00  0.00    +0.000 A 
ATOM     27  C   UNL     1     -72.947 -61.141 -25.033  0.00  0.00    +0.000 A 
ATOM     28  C   UNL     1     -73.752 -61.444 -29.345  0.00  0.00    +0.000 A 
ATOM     29  C   UNL     1     -74.783 -60.918 -30.132  0.00  0.00    +0.000 A 
ENDROOT
BRANCH  11  30
ATOM     30  O   UNL     1     -77.412 -56.093 -22.345  0.00  0.00    +0.000 OA
ATOM     31  H   UNL     1     -76.910 -56.225 -21.518  0.00  0.00    +0.000 HD
ENDBRANCH  11  30
BRANCH  16  32
ATOM     32  O   UNL     1     -76.413 -53.528 -21.191  0.00  0.00    +0.000 OA
ATOM     33  H   UNL     1     -77.004 -54.144 -21.664  0.00  0.00    +0.000 HD
ENDBRANCH  16  32
BRANCH  28  34
ATOM     34  O   UNL     1     -73.070 -62.529 -29.819  0.00  0.00    +0.000 OA
ATOM     35  H   UNL     1     -72.913 -63.125 -29.064  0.00  0.00    +0.000 HD
ENDBRANCH  28  34
TORSDOF 3
ENDMDL
MODEL 8
REMARK VINA RESULT:      -6.2     17.118     19.641
REMARK  Name = 14132199_RiccardinD.pdbqt.pdb
REMARK  3 active torsions:
REMARK  status: ('A' for Active; 'I' for Inactive)
REMARK    1  A    between atoms: C_11  and  O_30
REMARK    2  A    between atoms: C_16  and  O_32
REMARK    3  A    between atoms: C_28  and  O_34
REMARK                            x       y       z     vdW  Elec       q    Type
REMARK                         _______ _______ _______ _____ _____    ______ ____
ROOT
ATOM      1  O   UNL     1     -66.141 -61.204 -77.489  0.00  0.00    +0.000 OA
ATOM      2  C   UNL     1     -61.354 -57.133 -80.467  0.00  0.00    +0.000 C 
ATOM      3  C   UNL     1     -60.801 -55.908 -80.969  0.00  0.00    +0.000 A 
ATOM      4  C   UNL     1     -61.544 -54.699 -80.961  0.00  0.00    +0.000 A 
ATOM      5  C   UNL     1     -62.080 -58.348 -79.869  0.00  0.00    +0.000 C 
ATOM      6  C   UNL     1     -66.720 -55.652 -78.970  0.00  0.00    +0.000 C 
ATOM      7  C   UNL     1     -62.965 -54.685 -80.550  0.00  0.00    +0.000 A 
ATOM      8  C   UNL     1     -65.599 -55.068 -79.628  0.00  0.00    +0.000 A 
ATOM      9  C   UNL     1     -67.599 -56.696 -78.276  0.00  0.00    +0.000 C 
ATOM     10  C   UNL     1     -62.918 -59.335 -79.270  0.00  0.00    +0.000 A 
ATOM     11  C   UNL     1     -63.437 -54.031 -79.402  0.00  0.00    +0.000 A 
ATOM     12  C   UNL     1     -67.939 -57.970 -77.746  0.00  0.00    +0.000 A 
ATOM     13  C   UNL     1     -63.890 -55.439 -81.287  0.00  0.00    +0.000 A 
ATOM     14  C   UNL     1     -64.734 -54.234 -78.927  0.00  0.00    +0.000 A 
ATOM     15  C   UNL     1     -65.189 -55.639 -80.831  0.00  0.00    +0.000 A 
ATOM     16  C   UNL     1     -60.870 -53.535 -81.376  0.00  0.00    +0.000 A 
ATOM     17  C   UNL     1     -59.479 -55.937 -81.421  0.00  0.00    +0.000 A 
ATOM     18  C   UNL     1     -59.557 -53.573 -81.844  0.00  0.00    +0.000 A 
ATOM     19  C   UNL     1     -58.864 -54.777 -81.875  0.00  0.00    +0.000 A 
ATOM     20  C   UNL     1     -66.946 -58.938 -77.847  0.00  0.00    +0.000 A 
ATOM     21  C   UNL     1     -63.825 -60.042 -80.060  0.00  0.00    +0.000 A 
ATOM     22  C   UNL     1     -62.977 -59.429 -77.878  0.00  0.00    +0.000 A 
ATOM     23  C   UNL     1     -67.129 -60.237 -77.387  0.00  0.00    +0.000 A 
ATOM     24  C   UNL     1     -69.158 -58.291 -77.169  0.00  0.00    +0.000 A 
ATOM     25  C   UNL     1     -64.964 -60.770 -78.070  0.00  0.00    +0.000 A 
ATOM     26  C   UNL     1     -64.848 -60.774 -79.462  0.00  0.00    +0.000 A 
ATOM     27  C   UNL     1     -63.997 -60.159 -77.271  0.00  0.00    +0.000 A 
ATOM     28  C   UNL     1     -68.351 -60.558 -76.808  0.00  0.00    +0.000 A 
ATOM     29  C   UNL     1     -69.361 -59.595 -76.698  0.00  0.00    +0.000 A 
ENDROOT
BRANCH  11  30
ATOM     30  O   UNL     1     -62.601 -53.187 -78.719  0.00  0.00    +0.000 OA
ATOM     31  H   UNL     1     -62.874 -52.269 -78.910  0.00  0.00    +0.000 HD
ENDBRANCH  11  30
BRANCH  16  32
ATOM     32  O   UNL     1     -61.453 -52.296 -81.326  0.00  0.00    +0.000 OA
ATOM     33  H   UNL     1     -60.743 -51.659 -81.123  0.00  0.00    +0.000 HD
ENDBRANCH  16  32
BRANCH  28  34
ATOM     34  O   UNL     1     -68.604 -61.813 -76.333  0.00  0.00    +0.000 OA
ATOM     35  H   UNL     1     -68.801 -62.380 -77.101  0.00  0.00    +0.000 HD
ENDBRANCH  28  34
TORSDOF 3
ENDMDL
MODEL 9
REMARK VINA RESULT:      -6.2     15.456     19.122
REMARK  Name = 14132199_RiccardinD.pdbqt.pdb
REMARK  3 active torsions:
REMARK  status: ('A' for Active; 'I' for Inactive)
REMARK    1  A    between atoms: C_11  and  O_30
REMARK    2  A    between atoms: C_16  and  O_32
REMARK    3  A    between atoms: C_28  and  O_34
REMARK                            x       y       z     vdW  Elec       q    Type
REMARK                         _______ _______ _______ _____ _____    ______ ____
ROOT
ATOM      1  O   UNL     1     -70.413 -59.138 -72.704  0.00  0.00    +0.000 OA
ATOM      2  C   UNL     1     -64.991 -60.342 -76.889  0.00  0.00    +0.000 C 
ATOM      3  C   UNL     1     -64.166 -60.172 -78.050  0.00  0.00    +0.000 A 
ATOM      4  C   UNL     1     -64.530 -59.285 -79.097  0.00  0.00    +0.000 A 
ATOM      5  C   UNL     1     -65.969 -60.387 -75.703  0.00  0.00    +0.000 C 
ATOM      6  C   UNL     1     -69.536 -56.969 -77.983  0.00  0.00    +0.000 C 
ATOM      7  C   UNL     1     -65.840 -58.598 -79.087  0.00  0.00    +0.000 A 
ATOM      8  C   UNL     1     -68.367 -57.432 -78.655  0.00  0.00    +0.000 A 
ATOM      9  C   UNL     1     -70.601 -56.803 -76.896  0.00  0.00    +0.000 C 
ATOM     10  C   UNL     1     -66.988 -60.272 -74.712  0.00  0.00    +0.000 A 
ATOM     11  C   UNL     1     -65.988 -57.209 -78.958  0.00  0.00    +0.000 A 
ATOM     12  C   UNL     1     -71.234 -57.033 -75.645  0.00  0.00    +0.000 A 
ATOM     13  C   UNL     1     -67.010 -59.370 -79.114  0.00  0.00    +0.000 A 
ATOM     14  C   UNL     1     -67.235 -56.626 -78.722  0.00  0.00    +0.000 A 
ATOM     15  C   UNL     1     -68.260 -58.800 -78.892  0.00  0.00    +0.000 A 
ATOM     16  C   UNL     1     -63.599 -59.113 -80.138  0.00  0.00    +0.000 A 
ATOM     17  C   UNL     1     -62.960 -60.875 -78.090  0.00  0.00    +0.000 A 
ATOM     18  C   UNL     1     -62.405 -59.832 -80.182  0.00  0.00    +0.000 A 
ATOM     19  C   UNL     1     -62.089 -60.721 -79.161  0.00  0.00    +0.000 A 
ATOM     20  C   UNL     1     -70.572 -57.917 -74.800  0.00  0.00    +0.000 A 
ATOM     21  C   UNL     1     -68.133 -61.065 -74.805  0.00  0.00    +0.000 A 
ATOM     22  C   UNL     1     -66.931 -59.226 -73.790  0.00  0.00    +0.000 A 
ATOM     23  C   UNL     1     -71.069 -58.256 -73.547  0.00  0.00    +0.000 A 
ATOM     24  C   UNL     1     -72.430 -56.458 -75.241  0.00  0.00    +0.000 A 
ATOM     25  C   UNL     1     -69.226 -59.641 -73.203  0.00  0.00    +0.000 A 
ATOM     26  C   UNL     1     -69.256 -60.758 -74.040  0.00  0.00    +0.000 A 
ATOM     27  C   UNL     1     -68.050 -58.913 -73.021  0.00  0.00    +0.000 A 
ATOM     28  C   UNL     1     -72.268 -57.679 -73.143  0.00  0.00    +0.000 A 
ATOM     29  C   UNL     1     -72.946 -56.786 -73.981  0.00  0.00    +0.000 A 
ENDROOT
BRANCH  11  30
ATOM     30  O   UNL     1     -64.883 -56.404 -79.048  0.00  0.00    +0.000 OA
ATOM     31  H   UNL     1     -64.649 -56.313 -79.992  0.00  0.00    +0.000 HD
ENDBRANCH  11  30
BRANCH  16  32
ATOM     32  O   UNL     1     -63.797 -58.218 -81.156  0.00  0.00    +0.000 OA
ATOM     33  H   UNL     1     -64.744 -58.263 -81.389  0.00  0.00    +0.000 HD
ENDBRANCH  16  32
BRANCH  28  34
ATOM     34  O   UNL     1     -72.819 -57.963 -71.925  0.00  0.00    +0.000 OA
ATOM     35  H   UNL     1     -72.215 -57.612 -71.245  0.00  0.00    +0.000 HD
ENDBRANCH  28  34
TORSDOF 3
ENDMDL
