MODEL 1
REMARK VINA RESULT:      -3.7      0.000      0.000
REMARK  Name = 146026348_FluorouracilMononitrate.pdbqt.pdb
REMARK  2 active torsions:
REMARK  status: ('A' for Active; 'I' for Inactive)
REMARK    1  A    between atoms: N_4  and  O_10
REMARK    2  A    between atoms: O_10  and  N_13
REMARK                            x       y       z     vdW  Elec       q    Type
REMARK                         _______ _______ _______ _____ _____    ______ ____
ROOT
ATOM      1  F   UNL     1     -61.019 -55.542 -25.398  0.00  0.00    +0.000 F 
ATOM      2  O   UNL     1     -62.002 -55.838 -22.799  0.00  0.00    +0.000 OA
ATOM      3  O   UNL     1     -62.085 -51.169 -22.525  0.00  0.00    +0.000 OA
ATOM      4  N   UNL     1     -61.908 -53.511 -22.559  0.00  0.00    +0.000 N 
ATOM      5  N   UNL     1     -61.179 -54.507 -24.560  0.00  0.00    +0.000 N 
ATOM      6  C   UNL     1     -61.714 -54.736 -23.258  0.00  0.00    +0.000 A 
ATOM      7  C   UNL     1     -61.771 -52.218 -23.065  0.00  0.00    +0.000 A 
ATOM      8  C   UNL     1     -61.229 -52.254 -24.404  0.00  0.00    +0.000 A 
ATOM      9  C   UNL     1     -60.989 -53.253 -25.012  0.00  0.00    +0.000 A 
ENDROOT
BRANCH   4  10
ATOM     10  O   UNL     1     -62.520 -53.623 -21.298  0.00  0.00    +0.000 OA
BRANCH  10  13
ATOM     11  O   UNL     1     -61.952 -54.948 -19.572  0.00  0.00    +0.000 OA
ATOM     12  O   UNL     1     -60.655 -53.227 -20.169  0.00  0.00    +0.000 OA
ATOM     13  N   UNL     1     -61.633 -53.966 -20.248  0.00  0.00    +0.000 N 
ENDBRANCH  10  13
ENDBRANCH   4  10
TORSDOF 2
ENDMDL
MODEL 2
REMARK VINA RESULT:      -3.6     13.031     14.507
REMARK  Name = 146026348_FluorouracilMononitrate.pdbqt.pdb
REMARK  2 active torsions:
REMARK  status: ('A' for Active; 'I' for Inactive)
REMARK    1  A    between atoms: N_4  and  O_10
REMARK    2  A    between atoms: O_10  and  N_13
REMARK                            x       y       z     vdW  Elec       q    Type
REMARK                         _______ _______ _______ _____ _____    ______ ____
ROOT
ATOM      1  F   UNL     1     -70.799 -55.932 -35.190  0.00  0.00    +0.000 F 
ATOM      2  O   UNL     1     -68.727 -57.468 -36.267  0.00  0.00    +0.000 OA
ATOM      3  O   UNL     1     -67.364 -58.324 -31.875  0.00  0.00    +0.000 OA
ATOM      4  N   UNL     1     -67.914 -57.791 -34.096  0.00  0.00    +0.000 N 
ATOM      5  N   UNL     1     -69.813 -56.450 -34.442  0.00  0.00    +0.000 N 
ATOM      6  C   UNL     1     -68.807 -57.247 -35.061  0.00  0.00    +0.000 A 
ATOM      7  C   UNL     1     -68.033 -57.732 -32.706  0.00  0.00    +0.000 A 
ATOM      8  C   UNL     1     -69.136 -56.878 -32.330  0.00  0.00    +0.000 A 
ATOM      9  C   UNL     1     -69.876 -56.347 -33.100  0.00  0.00    +0.000 A 
ENDROOT
BRANCH   4  10
ATOM     10  O   UNL     1     -66.938 -58.671 -34.598  0.00  0.00    +0.000 OA
BRANCH  10  13
ATOM     11  O   UNL     1     -67.946 -60.573 -33.947  0.00  0.00    +0.000 OA
ATOM     12  O   UNL     1     -67.244 -60.312 -36.055  0.00  0.00    +0.000 OA
ATOM     13  N   UNL     1     -67.419 -59.972 -34.887  0.00  0.00    +0.000 N 
ENDBRANCH  10  13
ENDBRANCH   4  10
TORSDOF 2
ENDMDL
MODEL 3
REMARK VINA RESULT:      -3.5     54.749     56.092
REMARK  Name = 146026348_FluorouracilMononitrate.pdbqt.pdb
REMARK  2 active torsions:
REMARK  status: ('A' for Active; 'I' for Inactive)
REMARK    1  A    between atoms: N_4  and  O_10
REMARK    2  A    between atoms: O_10  and  N_13
REMARK                            x       y       z     vdW  Elec       q    Type
REMARK                         _______ _______ _______ _____ _____    ______ ____
ROOT
ATOM      1  F   UNL     1     -60.570 -48.164 -81.355  0.00  0.00    +0.000 F 
ATOM      2  O   UNL     1     -58.508 -49.591 -80.122  0.00  0.00    +0.000 OA
ATOM      3  O   UNL     1     -61.747 -51.395 -77.271  0.00  0.00    +0.000 OA
ATOM      4  N   UNL     1     -60.067 -50.395 -78.572  0.00  0.00    +0.000 N 
ATOM      5  N   UNL     1     -60.752 -48.885 -80.238  0.00  0.00    +0.000 N 
ATOM      6  C   UNL     1     -59.656 -49.610 -79.685  0.00  0.00    +0.000 A 
ATOM      7  C   UNL     1     -61.371 -50.605 -78.121  0.00  0.00    +0.000 A 
ATOM      8  C   UNL     1     -62.298 -49.771 -78.850  0.00  0.00    +0.000 A 
ATOM      9  C   UNL     1     -61.996 -49.048 -79.750  0.00  0.00    +0.000 A 
ENDROOT
BRANCH   4  10
ATOM     10  O   UNL     1     -59.076 -51.220 -78.011  0.00  0.00    +0.000 OA
BRANCH  10  13
ATOM     11  O   UNL     1     -58.958 -51.366 -75.770  0.00  0.00    +0.000 OA
ATOM     12  O   UNL     1     -57.789 -49.816 -76.880  0.00  0.00    +0.000 OA
ATOM     13  N   UNL     1     -58.566 -50.761 -76.772  0.00  0.00    +0.000 N 
ENDBRANCH  10  13
ENDBRANCH   4  10
TORSDOF 2
ENDMDL
MODEL 4
REMARK VINA RESULT:      -3.5     73.849     75.222
REMARK  Name = 146026348_FluorouracilMononitrate.pdbqt.pdb
REMARK  2 active torsions:
REMARK  status: ('A' for Active; 'I' for Inactive)
REMARK    1  A    between atoms: N_4  and  O_10
REMARK    2  A    between atoms: O_10  and  N_13
REMARK                            x       y       z     vdW  Elec       q    Type
REMARK                         _______ _______ _______ _____ _____    ______ ____
ROOT
ATOM      1  F   UNL     1     -51.081 -74.912 -97.178  0.00  0.00    +0.000 F 
ATOM      2  O   UNL     1     -50.898 -72.146 -96.825  0.00  0.00    +0.000 OA
ATOM      3  O   UNL     1     -50.250 -72.982 -92.269  0.00  0.00    +0.000 OA
ATOM      4  N   UNL     1     -50.732 -72.508 -94.518  0.00  0.00    +0.000 N 
ATOM      5  N   UNL     1     -51.015 -74.336 -95.968  0.00  0.00    +0.000 N 
ATOM      6  C   UNL     1     -50.894 -72.919 -95.871  0.00  0.00    +0.000 A 
ATOM      7  C   UNL     1     -50.546 -73.325 -93.402  0.00  0.00    +0.000 A 
ATOM      8  C   UNL     1     -50.700 -74.715 -93.764  0.00  0.00    +0.000 A 
ATOM      9  C   UNL     1     -50.900 -75.110 -94.872  0.00  0.00    +0.000 A 
ENDROOT
BRANCH   4  10
ATOM     10  O   UNL     1     -50.510 -71.132 -94.324  0.00  0.00    +0.000 OA
BRANCH  10  13
ATOM     11  O   UNL     1     -52.500 -70.205 -94.814  0.00  0.00    +0.000 OA
ATOM     12  O   UNL     1     -51.659 -70.085 -92.745  0.00  0.00    +0.000 OA
ATOM     13  N   UNL     1     -51.661 -70.406 -93.931  0.00  0.00    +0.000 N 
ENDBRANCH  10  13
ENDBRANCH   4  10
TORSDOF 2
ENDMDL
MODEL 5
REMARK VINA RESULT:      -3.4     70.998     72.091
REMARK  Name = 146026348_FluorouracilMononitrate.pdbqt.pdb
REMARK  2 active torsions:
REMARK  status: ('A' for Active; 'I' for Inactive)
REMARK    1  A    between atoms: N_4  and  O_10
REMARK    2  A    between atoms: O_10  and  N_13
REMARK                            x       y       z     vdW  Elec       q    Type
REMARK                         _______ _______ _______ _____ _____    ______ ____
ROOT
ATOM      1  F   UNL     1     -56.130 -69.889 -91.890  0.00  0.00    +0.000 F 
ATOM      2  O   UNL     1     -54.305 -71.268 -90.285  0.00  0.00    +0.000 OA
ATOM      3  O   UNL     1     -51.028 -70.176 -93.438  0.00  0.00    +0.000 OA
ATOM      4  N   UNL     1     -52.668 -70.884 -91.913  0.00  0.00    +0.000 N 
ATOM      5  N   UNL     1     -54.866 -70.131 -92.270  0.00  0.00    +0.000 N 
ATOM      6  C   UNL     1     -53.986 -70.816 -91.381  0.00  0.00    +0.000 A 
ATOM      7  C   UNL     1     -52.186 -70.253 -93.061  0.00  0.00    +0.000 A 
ATOM      8  C   UNL     1     -53.266 -69.616 -93.778  0.00  0.00    +0.000 A 
ATOM      9  C   UNL     1     -54.400 -69.584 -93.408  0.00  0.00    +0.000 A 
ENDROOT
BRANCH   4  10
ATOM     10  O   UNL     1     -51.702 -71.461 -91.069  0.00  0.00    +0.000 OA
BRANCH  10  13
ATOM     11  O   UNL     1     -52.261 -73.490 -91.860  0.00  0.00    +0.000 OA
ATOM     12  O   UNL     1     -50.167 -73.054 -91.207  0.00  0.00    +0.000 OA
ATOM     13  N   UNL     1     -51.351 -72.791 -91.408  0.00  0.00    +0.000 N 
ENDBRANCH  10  13
ENDBRANCH   4  10
TORSDOF 2
ENDMDL
MODEL 6
REMARK VINA RESULT:      -3.4     37.341     38.231
REMARK  Name = 146026348_FluorouracilMononitrate.pdbqt.pdb
REMARK  2 active torsions:
REMARK  status: ('A' for Active; 'I' for Inactive)
REMARK    1  A    between atoms: N_4  and  O_10
REMARK    2  A    between atoms: O_10  and  N_13
REMARK                            x       y       z     vdW  Elec       q    Type
REMARK                         _______ _______ _______ _____ _____    ______ ____
ROOT
ATOM      1  F   UNL     1     -61.486 -44.937 -59.014  0.00  0.00    +0.000 F 
ATOM      2  O   UNL     1     -64.125 -44.395 -58.272  0.00  0.00    +0.000 OA
ATOM      3  O   UNL     1     -65.366 -48.189 -60.708  0.00  0.00    +0.000 OA
ATOM      4  N   UNL     1     -64.810 -46.190 -59.609  0.00  0.00    +0.000 N 
ATOM      5  N   UNL     1     -62.533 -45.615 -59.507  0.00  0.00    +0.000 N 
ATOM      6  C   UNL     1     -63.848 -45.298 -59.057  0.00  0.00    +0.000 A 
ATOM      7  C   UNL     1     -64.564 -47.337 -60.365  0.00  0.00    +0.000 A 
ATOM      8  C   UNL     1     -63.157 -47.443 -60.677  0.00  0.00    +0.000 A 
ATOM      9  C   UNL     1     -62.318 -46.688 -60.292  0.00  0.00    +0.000 A 
ENDROOT
BRANCH   4  10
ATOM     10  O   UNL     1     -66.129 -46.019 -59.153  0.00  0.00    +0.000 OA
BRANCH  10  13
ATOM     11  O   UNL     1     -68.008 -46.209 -60.375  0.00  0.00    +0.000 OA
ATOM     12  O   UNL     1     -66.682 -44.421 -60.585  0.00  0.00    +0.000 OA
ATOM     13  N   UNL     1     -67.022 -45.509 -60.128  0.00  0.00    +0.000 N 
ENDBRANCH  10  13
ENDBRANCH   4  10
TORSDOF 2
ENDMDL
MODEL 7
REMARK VINA RESULT:      -3.3      1.711      3.057
REMARK  Name = 146026348_FluorouracilMononitrate.pdbqt.pdb
REMARK  2 active torsions:
REMARK  status: ('A' for Active; 'I' for Inactive)
REMARK    1  A    between atoms: N_4  and  O_10
REMARK    2  A    between atoms: O_10  and  N_13
REMARK                            x       y       z     vdW  Elec       q    Type
REMARK                         _______ _______ _______ _____ _____    ______ ____
ROOT
ATOM      1  F   UNL     1     -61.548 -52.740 -25.316  0.00  0.00    +0.000 F 
ATOM      2  O   UNL     1     -61.960 -51.149 -23.056  0.00  0.00    +0.000 OA
ATOM      3  O   UNL     1     -61.651 -55.059 -20.507  0.00  0.00    +0.000 OA
ATOM      4  N   UNL     1     -61.973 -53.096 -21.756  0.00  0.00    +0.000 N 
ATOM      5  N   UNL     1     -61.729 -53.253 -24.089  0.00  0.00    +0.000 N 
ATOM      6  C   UNL     1     -61.904 -52.374 -22.980  0.00  0.00    +0.000 A 
ATOM      7  C   UNL     1     -61.749 -54.460 -21.566  0.00  0.00    +0.000 A 
ATOM      8  C   UNL     1     -61.583 -55.127 -22.837  0.00  0.00    +0.000 A 
ATOM      9  C   UNL     1     -61.580 -54.577 -23.896  0.00  0.00    +0.000 A 
ENDROOT
BRANCH   4  10
ATOM     10  O   UNL     1     -62.052 -52.311 -20.592  0.00  0.00    +0.000 OA
BRANCH  10  13
ATOM     11  O   UNL     1     -63.691 -50.793 -20.332  0.00  0.00    +0.000 OA
ATOM     12  O   UNL     1     -64.021 -52.938 -19.792  0.00  0.00    +0.000 OA
ATOM     13  N   UNL     1     -63.373 -51.978 -20.202  0.00  0.00    +0.000 N 
ENDBRANCH  10  13
ENDBRANCH   4  10
TORSDOF 2
ENDMDL
MODEL 8
REMARK VINA RESULT:      -3.2     29.342     30.201
REMARK  Name = 146026348_FluorouracilMononitrate.pdbqt.pdb
REMARK  2 active torsions:
REMARK  status: ('A' for Active; 'I' for Inactive)
REMARK    1  A    between atoms: N_4  and  O_10
REMARK    2  A    between atoms: O_10  and  N_13
REMARK                            x       y       z     vdW  Elec       q    Type
REMARK                         _______ _______ _______ _____ _____    ______ ____
ROOT
ATOM      1  F   UNL     1     -68.518 -48.874 -50.197  0.00  0.00    +0.000 F 
ATOM      2  O   UNL     1     -67.067 -50.927 -51.419  0.00  0.00    +0.000 OA
ATOM      3  O   UNL     1     -63.626 -47.825 -52.064  0.00  0.00    +0.000 OA
ATOM      4  N   UNL     1     -65.386 -49.372 -51.907  0.00  0.00    +0.000 N 
ATOM      5  N   UNL     1     -67.346 -48.667 -50.817  0.00  0.00    +0.000 N 
ATOM      6  C   UNL     1     -66.651 -49.771 -51.392  0.00  0.00    +0.000 A 
ATOM      7  C   UNL     1     -64.770 -48.128 -51.765  0.00  0.00    +0.000 A 
ATOM      8  C   UNL     1     -65.670 -47.188 -51.139  0.00  0.00    +0.000 A 
ATOM      9  C   UNL     1     -66.765 -47.454 -50.746  0.00  0.00    +0.000 A 
ENDROOT
BRANCH   4  10
ATOM     10  O   UNL     1     -64.582 -50.410 -52.413  0.00  0.00    +0.000 OA
BRANCH  10  13
ATOM     11  O   UNL     1     -65.539 -50.590 -54.440  0.00  0.00    +0.000 OA
ATOM     12  O   UNL     1     -63.333 -50.278 -54.239  0.00  0.00    +0.000 OA
ATOM     13  N   UNL     1     -64.480 -50.432 -53.826  0.00  0.00    +0.000 N 
ENDBRANCH  10  13
ENDBRANCH   4  10
TORSDOF 2
ENDMDL
MODEL 9
REMARK VINA RESULT:      -3.2      9.599     11.138
REMARK  Name = 146026348_FluorouracilMononitrate.pdbqt.pdb
REMARK  2 active torsions:
REMARK  status: ('A' for Active; 'I' for Inactive)
REMARK    1  A    between atoms: N_4  and  O_10
REMARK    2  A    between atoms: O_10  and  N_13
REMARK                            x       y       z     vdW  Elec       q    Type
REMARK                         _______ _______ _______ _____ _____    ______ ____
ROOT
ATOM      1  F   UNL     1     -63.924 -56.486 -13.098  0.00  0.00    +0.000 F 
ATOM      2  O   UNL     1     -64.174 -57.476 -15.699  0.00  0.00    +0.000 OA
ATOM      3  O   UNL     1     -65.672 -61.481 -13.804  0.00  0.00    +0.000 OA
ATOM      4  N   UNL     1     -64.774 -59.549 -14.792  0.00  0.00    +0.000 N 
ATOM      5  N   UNL     1     -64.219 -57.768 -13.362  0.00  0.00    +0.000 N 
ATOM      6  C   UNL     1     -64.358 -58.190 -14.717  0.00  0.00    +0.000 A 
ATOM      7  C   UNL     1     -65.167 -60.373 -13.736  0.00  0.00    +0.000 A 
ATOM      8  C   UNL     1     -64.946 -59.712 -12.471  0.00  0.00    +0.000 A 
ATOM      9  C   UNL     1     -64.539 -58.596 -12.350  0.00  0.00    +0.000 A 
ENDROOT
BRANCH   4  10
ATOM     10  O   UNL     1     -65.030 -60.035 -16.087  0.00  0.00    +0.000 OA
BRANCH  10  13
ATOM     11  O   UNL     1     -64.505 -62.062 -16.908  0.00  0.00    +0.000 OA
ATOM     12  O   UNL     1     -62.922 -60.518 -16.571  0.00  0.00    +0.000 OA
ATOM     13  N   UNL     1     -64.069 -60.960 -16.563  0.00  0.00    +0.000 N 
ENDBRANCH  10  13
ENDBRANCH   4  10
TORSDOF 2
ENDMDL
