MODEL 1
REMARK VINA RESULT:      -6.8      0.000      0.000
REMARK  Name = 179268_Nortopsentin.pdbqt.pdb
REMARK  2 active torsions:
REMARK  status: ('A' for Active; 'I' for Inactive)
REMARK    1  A    between atoms: C_3  and  C_9
REMARK    2  A    between atoms: C_4  and  C_20
REMARK                            x       y       z     vdW  Elec       q    Type
REMARK                         _______ _______ _______ _____ _____    ______ ____
ROOT
ATOM      1  N   UNL     1     -71.434 -57.262 -27.321  0.00  0.00    +0.000 N 
ATOM      2  N   UNL     1     -73.346 -58.362 -27.480  0.00  0.00    +0.000 NA
ATOM      3  C   UNL     1     -71.700 -57.354 -28.660  0.00  0.00    +0.000 A 
ATOM      4  C   UNL     1     -72.451 -57.883 -26.642  0.00  0.00    +0.000 A 
ATOM      5  C   UNL     1     -72.891 -58.040 -28.735  0.00  0.00    +0.000 A 
ATOM      6  H   UNL     1     -70.635 -56.819 -26.894  0.00  0.00    +0.000 HD
ENDROOT
BRANCH   3   9
ATOM      7 BR   UNL     1     -68.819 -58.532 -35.214  0.00  0.00    +0.000 Br
ATOM      8  N   UNL     1     -69.627 -55.420 -30.941  0.00  0.00    +0.000 N 
ATOM      9  C   UNL     1     -70.881 -56.828 -29.770  0.00  0.00    +0.000 A 
ATOM     10  C   UNL     1     -70.531 -57.463 -30.996  0.00  0.00    +0.000 A 
ATOM     11  C   UNL     1     -69.743 -56.555 -31.711  0.00  0.00    +0.000 A 
ATOM     12  C   UNL     1     -70.311 -55.577 -29.769  0.00  0.00    +0.000 A 
ATOM     13  C   UNL     1     -70.800 -58.718 -31.576  0.00  0.00    +0.000 A 
ATOM     14  C   UNL     1     -69.212 -56.836 -32.975  0.00  0.00    +0.000 A 
ATOM     15  C   UNL     1     -70.282 -59.019 -32.836  0.00  0.00    +0.000 A 
ATOM     16  C   UNL     1     -69.503 -58.089 -33.514  0.00  0.00    +0.000 A 
ATOM     17  H   UNL     1     -69.112 -54.590 -31.203  0.00  0.00    +0.000 HD
ENDBRANCH   3   9
BRANCH   4  20
ATOM     18 BR   UNL     1     -75.028 -55.055 -20.488  0.00  0.00    +0.000 Br
ATOM     19  N   UNL     1     -72.212 -58.770 -23.108  0.00  0.00    +0.000 N 
ATOM     20  C   UNL     1     -72.528 -57.995 -25.164  0.00  0.00    +0.000 A 
ATOM     21  C   UNL     1     -73.211 -57.135 -24.258  0.00  0.00    +0.000 A 
ATOM     22  C   UNL     1     -72.995 -57.645 -22.976  0.00  0.00    +0.000 A 
ATOM     23  C   UNL     1     -71.924 -58.989 -24.428  0.00  0.00    +0.000 A 
ATOM     24  C   UNL     1     -73.993 -55.972 -24.399  0.00  0.00    +0.000 A 
ATOM     25  C   UNL     1     -73.521 -57.054 -21.823  0.00  0.00    +0.000 A 
ATOM     26  C   UNL     1     -74.526 -55.364 -23.261  0.00  0.00    +0.000 A 
ATOM     27  C   UNL     1     -74.290 -55.903 -22.003  0.00  0.00    +0.000 A 
ATOM     28  H   UNL     1     -71.897 -59.347 -22.341  0.00  0.00    +0.000 HD
ENDBRANCH   4  20
TORSDOF 2
ENDMDL
MODEL 2
REMARK VINA RESULT:      -6.7      0.395      9.201
REMARK  Name = 179268_Nortopsentin.pdbqt.pdb
REMARK  2 active torsions:
REMARK  status: ('A' for Active; 'I' for Inactive)
REMARK    1  A    between atoms: C_3  and  C_9
REMARK    2  A    between atoms: C_4  and  C_20
REMARK                            x       y       z     vdW  Elec       q    Type
REMARK                         _______ _______ _______ _____ _____    ______ ____
ROOT
ATOM      1  N   UNL     1     -71.432 -57.243 -27.311  0.00  0.00    +0.000 N 
ATOM      2  N   UNL     1     -72.780 -58.155 -28.808  0.00  0.00    +0.000 NA
ATOM      3  C   UNL     1     -72.391 -57.902 -26.594  0.00  0.00    +0.000 A 
ATOM      4  C   UNL     1     -71.701 -57.419 -28.644  0.00  0.00    +0.000 A 
ATOM      5  C   UNL     1     -73.218 -58.461 -27.542  0.00  0.00    +0.000 A 
ATOM      6  H   UNL     1     -70.657 -56.715 -26.938  0.00  0.00    +0.000 HD
ENDROOT
BRANCH   3   9
ATOM      7 BR   UNL     1     -75.101 -55.044 -20.500  0.00  0.00    +0.000 Br
ATOM      8  N   UNL     1     -72.219 -58.750 -23.059  0.00  0.00    +0.000 N 
ATOM      9  C   UNL     1     -72.505 -57.988 -25.124  0.00  0.00    +0.000 A 
ATOM     10  C   UNL     1     -73.209 -57.128 -24.234  0.00  0.00    +0.000 A 
ATOM     11  C   UNL     1     -73.011 -57.631 -22.944  0.00  0.00    +0.000 A 
ATOM     12  C   UNL     1     -71.909 -58.973 -24.371  0.00  0.00    +0.000 A 
ATOM     13  C   UNL     1     -73.997 -55.970 -24.387  0.00  0.00    +0.000 A 
ATOM     14  C   UNL     1     -73.559 -57.037 -21.801  0.00  0.00    +0.000 A 
ATOM     15  C   UNL     1     -74.553 -55.362 -23.262  0.00  0.00    +0.000 A 
ATOM     16  C   UNL     1     -74.333 -55.893 -21.997  0.00  0.00    +0.000 A 
ATOM     17  H   UNL     1     -71.910 -59.326 -22.287  0.00  0.00    +0.000 HD
ENDBRANCH   3   9
BRANCH   4  20
ATOM     18 BR   UNL     1     -68.913 -58.466 -35.250  0.00  0.00    +0.000 Br
ATOM     19  N   UNL     1     -69.633 -55.434 -30.905  0.00  0.00    +0.000 N 
ATOM     20  C   UNL     1     -70.884 -56.855 -29.748  0.00  0.00    +0.000 A 
ATOM     21  C   UNL     1     -70.556 -57.466 -30.990  0.00  0.00    +0.000 A 
ATOM     22  C   UNL     1     -69.770 -56.552 -31.696  0.00  0.00    +0.000 A 
ATOM     23  C   UNL     1     -70.303 -55.607 -29.724  0.00  0.00    +0.000 A 
ATOM     24  C   UNL     1     -70.849 -58.707 -31.589  0.00  0.00    +0.000 A 
ATOM     25  C   UNL     1     -69.260 -56.812 -32.971  0.00  0.00    +0.000 A 
ATOM     26  C   UNL     1     -70.348 -58.988 -32.861  0.00  0.00    +0.000 A 
ATOM     27  C   UNL     1     -69.571 -58.052 -33.531  0.00  0.00    +0.000 A 
ATOM     28  H   UNL     1     -69.112 -54.606 -31.162  0.00  0.00    +0.000 HD
ENDBRANCH   4  20
TORSDOF 2
ENDMDL
MODEL 3
REMARK VINA RESULT:      -6.6     44.363     50.203
REMARK  Name = 179268_Nortopsentin.pdbqt.pdb
REMARK  2 active torsions:
REMARK  status: ('A' for Active; 'I' for Inactive)
REMARK    1  A    between atoms: C_3  and  C_9
REMARK    2  A    between atoms: C_4  and  C_20
REMARK                            x       y       z     vdW  Elec       q    Type
REMARK                         _______ _______ _______ _____ _____    ______ ____
ROOT
ATOM      1  N   UNL     1     -64.493 -60.058 -76.836  0.00  0.00    +0.000 N 
ATOM      2  N   UNL     1     -64.411 -61.938 -77.999  0.00  0.00    +0.000 NA
ATOM      3  C   UNL     1     -65.364 -60.914 -76.220  0.00  0.00    +0.000 A 
ATOM      4  C   UNL     1     -63.938 -60.713 -77.907  0.00  0.00    +0.000 A 
ATOM      5  C   UNL     1     -65.297 -62.075 -76.958  0.00  0.00    +0.000 A 
ATOM      6  H   UNL     1     -64.286 -59.110 -76.564  0.00  0.00    +0.000 HD
ENDROOT
BRANCH   3   9
ATOM      7 BR   UNL     1     -65.839 -60.985 -68.981  0.00  0.00    +0.000 Br
ATOM      8  N   UNL     1     -67.933 -60.018 -73.805  0.00  0.00    +0.000 N 
ATOM      9  C   UNL     1     -66.188 -60.641 -75.026  0.00  0.00    +0.000 A 
ATOM     10  C   UNL     1     -65.852 -60.817 -73.653  0.00  0.00    +0.000 A 
ATOM     11  C   UNL     1     -66.967 -60.418 -72.910  0.00  0.00    +0.000 A 
ATOM     12  C   UNL     1     -67.471 -60.149 -75.084  0.00  0.00    +0.000 A 
ATOM     13  C   UNL     1     -64.715 -61.276 -72.961  0.00  0.00    +0.000 A 
ATOM     14  C   UNL     1     -67.004 -60.453 -71.511  0.00  0.00    +0.000 A 
ATOM     15  C   UNL     1     -64.729 -61.319 -71.566  0.00  0.00    +0.000 A 
ATOM     16  C   UNL     1     -65.857 -60.913 -70.864  0.00  0.00    +0.000 A 
ATOM     17  H   UNL     1     -68.851 -59.676 -73.555  0.00  0.00    +0.000 HD
ENDBRANCH   3   9
BRANCH   4  20
ATOM     18 BR   UNL     1     -61.609 -54.720 -81.247  0.00  0.00    +0.000 Br
ATOM     19  N   UNL     1     -61.207 -59.950 -80.206  0.00  0.00    +0.000 N 
ATOM     20  C   UNL     1     -62.940 -60.118 -78.830  0.00  0.00    +0.000 A 
ATOM     21  C   UNL     1     -62.843 -58.763 -79.254  0.00  0.00    +0.000 A 
ATOM     22  C   UNL     1     -61.747 -58.687 -80.118  0.00  0.00    +0.000 A 
ATOM     23  C   UNL     1     -61.922 -60.823 -79.432  0.00  0.00    +0.000 A 
ATOM     24  C   UNL     1     -63.578 -57.590 -78.990  0.00  0.00    +0.000 A 
ATOM     25  C   UNL     1     -61.346 -57.498 -80.733  0.00  0.00    +0.000 A 
ATOM     26  C   UNL     1     -63.194 -56.392 -79.596  0.00  0.00    +0.000 A 
ATOM     27  C   UNL     1     -62.098 -56.357 -80.448  0.00  0.00    +0.000 A 
ATOM     28  H   UNL     1     -60.401 -60.194 -80.764  0.00  0.00    +0.000 HD
ENDBRANCH   4  20
TORSDOF 2
ENDMDL
MODEL 4
REMARK VINA RESULT:      -6.6      2.541      9.586
REMARK  Name = 179268_Nortopsentin.pdbqt.pdb
REMARK  2 active torsions:
REMARK  status: ('A' for Active; 'I' for Inactive)
REMARK    1  A    between atoms: C_3  and  C_9
REMARK    2  A    between atoms: C_4  and  C_20
REMARK                            x       y       z     vdW  Elec       q    Type
REMARK                         _______ _______ _______ _____ _____    ______ ____
ROOT
ATOM      1  N   UNL     1     -70.601 -57.138 -30.605  0.00  0.00    +0.000 N 
ATOM      2  N   UNL     1     -69.983 -55.237 -31.551  0.00  0.00    +0.000 NA
ATOM      3  C   UNL     1     -71.295 -56.157 -29.954  0.00  0.00    +0.000 A 
ATOM      4  C   UNL     1     -69.819 -56.543 -31.562  0.00  0.00    +0.000 A 
ATOM      5  C   UNL     1     -70.897 -54.985 -30.557  0.00  0.00    +0.000 A 
ATOM      6  H   UNL     1     -70.645 -58.130 -30.424  0.00  0.00    +0.000 HD
ENDROOT
BRANCH   3   9
ATOM      7 BR   UNL     1     -72.604 -58.903 -23.366  0.00  0.00    +0.000 Br
ATOM      8  N   UNL     1     -74.147 -56.165 -27.693  0.00  0.00    +0.000 N 
ATOM      9  C   UNL     1     -72.258 -56.329 -28.848  0.00  0.00    +0.000 A 
ATOM     10  C   UNL     1     -72.080 -57.010 -27.610  0.00  0.00    +0.000 A 
ATOM     11  C   UNL     1     -73.282 -56.890 -26.906  0.00  0.00    +0.000 A 
ATOM     12  C   UNL     1     -73.537 -55.822 -28.867  0.00  0.00    +0.000 A 
ATOM     13  C   UNL     1     -71.020 -57.718 -27.011  0.00  0.00    +0.000 A 
ATOM     14  C   UNL     1     -73.480 -57.442 -25.635  0.00  0.00    +0.000 A 
ATOM     15  C   UNL     1     -71.195 -58.276 -25.744  0.00  0.00    +0.000 A 
ATOM     16  C   UNL     1     -72.405 -58.135 -25.077  0.00  0.00    +0.000 A 
ATOM     17  H   UNL     1     -75.095 -55.921 -27.442  0.00  0.00    +0.000 HD
ENDBRANCH   3   9
BRANCH   4  20
ATOM     18 BR   UNL     1     -68.067 -57.983 -38.444  0.00  0.00    +0.000 Br
ATOM     19  N   UNL     1     -67.278 -58.597 -33.191  0.00  0.00    +0.000 N 
ATOM     20  C   UNL     1     -68.915 -57.276 -32.483  0.00  0.00    +0.000 A 
ATOM     21  C   UNL     1     -68.928 -57.271 -33.906  0.00  0.00    +0.000 A 
ATOM     22  C   UNL     1     -67.891 -58.109 -34.323  0.00  0.00    +0.000 A 
ATOM     23  C   UNL     1     -67.891 -58.100 -32.073  0.00  0.00    +0.000 A 
ATOM     24  C   UNL     1     -69.718 -56.637 -34.884  0.00  0.00    +0.000 A 
ATOM     25  C   UNL     1     -67.600 -58.348 -35.670  0.00  0.00    +0.000 A 
ATOM     26  C   UNL     1     -69.447 -56.863 -36.235  0.00  0.00    +0.000 A 
ATOM     27  C   UNL     1     -68.406 -57.702 -36.609  0.00  0.00    +0.000 A 
ATOM     28  H   UNL     1     -66.491 -59.231 -33.189  0.00  0.00    +0.000 HD
ENDBRANCH   4  20
TORSDOF 2
ENDMDL
MODEL 5
REMARK VINA RESULT:      -6.5     43.717     45.951
REMARK  Name = 179268_Nortopsentin.pdbqt.pdb
REMARK  2 active torsions:
REMARK  status: ('A' for Active; 'I' for Inactive)
REMARK    1  A    between atoms: C_3  and  C_9
REMARK    2  A    between atoms: C_4  and  C_20
REMARK                            x       y       z     vdW  Elec       q    Type
REMARK                         _______ _______ _______ _____ _____    ______ ____
ROOT
ATOM      1  N   UNL     1     -62.951 -62.792 -70.829  0.00  0.00    +0.000 N 
ATOM      2  N   UNL     1     -63.332 -64.571 -69.570  0.00  0.00    +0.000 NA
ATOM      3  C   UNL     1     -64.273 -62.728 -70.486  0.00  0.00    +0.000 A 
ATOM      4  C   UNL     1     -62.417 -63.919 -70.257  0.00  0.00    +0.000 A 
ATOM      5  C   UNL     1     -64.489 -63.841 -69.705  0.00  0.00    +0.000 A 
ATOM      6  H   UNL     1     -62.445 -62.134 -71.401  0.00  0.00    +0.000 HD
ENDROOT
BRANCH   3   9
ATOM      7 BR   UNL     1     -67.477 -59.065 -75.868  0.00  0.00    +0.000 Br
ATOM      8  N   UNL     1     -66.780 -60.096 -70.668  0.00  0.00    +0.000 N 
ATOM      9  C   UNL     1     -65.247 -61.688 -70.874  0.00  0.00    +0.000 A 
ATOM     10  C   UNL     1     -65.600 -61.243 -72.180  0.00  0.00    +0.000 A 
ATOM     11  C   UNL     1     -66.565 -60.243 -72.019  0.00  0.00    +0.000 A 
ATOM     12  C   UNL     1     -65.989 -60.965 -69.970  0.00  0.00    +0.000 A 
ATOM     13  C   UNL     1     -65.201 -61.584 -73.487  0.00  0.00    +0.000 A 
ATOM     14  C   UNL     1     -67.150 -59.568 -73.096  0.00  0.00    +0.000 A 
ATOM     15  C   UNL     1     -65.771 -60.924 -74.575  0.00  0.00    +0.000 A 
ATOM     16  C   UNL     1     -66.727 -59.936 -74.373  0.00  0.00    +0.000 A 
ATOM     17  H   UNL     1     -67.429 -59.443 -70.250  0.00  0.00    +0.000 HD
ENDBRANCH   3   9
BRANCH   4  20
ATOM     18 BR   UNL     1     -57.673 -68.111 -73.783  0.00  0.00    +0.000 Br
ATOM     19  N   UNL     1     -58.815 -64.469 -70.038  0.00  0.00    +0.000 N 
ATOM     20  C   UNL     1     -61.001 -64.341 -70.396  0.00  0.00    +0.000 A 
ATOM     21  C   UNL     1     -60.458 -65.286 -71.311  0.00  0.00    +0.000 A 
ATOM     22  C   UNL     1     -59.085 -65.346 -71.063  0.00  0.00    +0.000 A 
ATOM     23  C   UNL     1     -59.968 -63.856 -69.627  0.00  0.00    +0.000 A 
ATOM     24  C   UNL     1     -60.996 -66.098 -72.329  0.00  0.00    +0.000 A 
ATOM     25  C   UNL     1     -58.218 -66.177 -71.780  0.00  0.00    +0.000 A 
ATOM     26  C   UNL     1     -60.149 -66.936 -73.056  0.00  0.00    +0.000 A 
ATOM     27  C   UNL     1     -58.788 -66.967 -72.779  0.00  0.00    +0.000 A 
ATOM     28  H   UNL     1     -57.897 -64.303 -69.646  0.00  0.00    +0.000 HD
ENDBRANCH   4  20
TORSDOF 2
ENDMDL
MODEL 6
REMARK VINA RESULT:      -6.5     43.677     45.823
REMARK  Name = 179268_Nortopsentin.pdbqt.pdb
REMARK  2 active torsions:
REMARK  status: ('A' for Active; 'I' for Inactive)
REMARK    1  A    between atoms: C_3  and  C_9
REMARK    2  A    between atoms: C_4  and  C_20
REMARK                            x       y       z     vdW  Elec       q    Type
REMARK                         _______ _______ _______ _____ _____    ______ ____
ROOT
ATOM      1  N   UNL     1     -62.914 -62.813 -70.862  0.00  0.00    +0.000 N 
ATOM      2  N   UNL     1     -64.538 -63.846 -69.772  0.00  0.00    +0.000 NA
ATOM      3  C   UNL     1     -62.355 -63.953 -70.355  0.00  0.00    +0.000 A 
ATOM      4  C   UNL     1     -64.234 -62.784 -70.488  0.00  0.00    +0.000 A 
ATOM      5  C   UNL     1     -63.380 -64.579 -69.682  0.00  0.00    +0.000 A 
ATOM      6  H   UNL     1     -62.450 -62.108 -71.414  0.00  0.00    +0.000 HD
ENDROOT
BRANCH   3   9
ATOM      7 BR   UNL     1     -57.665 -68.278 -73.811  0.00  0.00    +0.000 Br
ATOM      8  N   UNL     1     -58.771 -64.545 -70.146  0.00  0.00    +0.000 N 
ATOM      9  C   UNL     1     -60.957 -64.403 -70.503  0.00  0.00    +0.000 A 
ATOM     10  C   UNL     1     -60.424 -65.374 -71.400  0.00  0.00    +0.000 A 
ATOM     11  C   UNL     1     -59.049 -65.441 -71.152  0.00  0.00    +0.000 A 
ATOM     12  C   UNL     1     -59.916 -63.914 -69.749  0.00  0.00    +0.000 A 
ATOM     13  C   UNL     1     -60.967 -66.205 -72.399  0.00  0.00    +0.000 A 
ATOM     14  C   UNL     1     -58.190 -66.297 -71.851  0.00  0.00    +0.000 A 
ATOM     15  C   UNL     1     -60.128 -67.065 -73.108  0.00  0.00    +0.000 A 
ATOM     16  C   UNL     1     -58.767 -67.103 -72.832  0.00  0.00    +0.000 A 
ATOM     17  H   UNL     1     -57.853 -64.376 -69.756  0.00  0.00    +0.000 HD
ENDBRANCH   3   9
BRANCH   4  20
ATOM     18 BR   UNL     1     -67.481 -59.104 -75.819  0.00  0.00    +0.000 Br
ATOM     19  N   UNL     1     -66.640 -60.041 -70.622  0.00  0.00    +0.000 N 
ATOM     20  C   UNL     1     -65.184 -61.701 -70.846  0.00  0.00    +0.000 A 
ATOM     21  C   UNL     1     -65.566 -61.271 -72.147  0.00  0.00    +0.000 A 
ATOM     22  C   UNL     1     -66.480 -60.228 -71.976  0.00  0.00    +0.000 A 
ATOM     23  C   UNL     1     -65.860 -60.927 -69.929  0.00  0.00    +0.000 A 
ATOM     24  C   UNL     1     -65.227 -61.663 -73.457  0.00  0.00    +0.000 A 
ATOM     25  C   UNL     1     -67.075 -59.555 -73.047  0.00  0.00    +0.000 A 
ATOM     26  C   UNL     1     -65.809 -61.004 -74.541  0.00  0.00    +0.000 A 
ATOM     27  C   UNL     1     -66.714 -59.972 -74.330  0.00  0.00    +0.000 A 
ATOM     28  H   UNL     1     -67.246 -59.349 -70.203  0.00  0.00    +0.000 HD
ENDBRANCH   4  20
TORSDOF 2
ENDMDL
MODEL 7
REMARK VINA RESULT:      -6.5      2.531      4.069
REMARK  Name = 179268_Nortopsentin.pdbqt.pdb
REMARK  2 active torsions:
REMARK  status: ('A' for Active; 'I' for Inactive)
REMARK    1  A    between atoms: C_3  and  C_9
REMARK    2  A    between atoms: C_4  and  C_20
REMARK                            x       y       z     vdW  Elec       q    Type
REMARK                         _______ _______ _______ _____ _____    ______ ____
ROOT
ATOM      1  N   UNL     1     -70.750 -57.110 -30.415  0.00  0.00    +0.000 N 
ATOM      2  N   UNL     1     -71.049 -54.937 -30.127  0.00  0.00    +0.000 NA
ATOM      3  C   UNL     1     -69.971 -56.500 -31.359  0.00  0.00    +0.000 A 
ATOM      4  C   UNL     1     -71.386 -56.133 -29.691  0.00  0.00    +0.000 A 
ATOM      5  C   UNL     1     -70.172 -55.152 -31.162  0.00  0.00    +0.000 A 
ATOM      6  H   UNL     1     -70.850 -58.103 -30.266  0.00  0.00    +0.000 HD
ENDROOT
BRANCH   3   9
ATOM      7 BR   UNL     1     -68.530 -57.600 -38.384  0.00  0.00    +0.000 Br
ATOM      8  N   UNL     1     -67.472 -58.395 -33.204  0.00  0.00    +0.000 N 
ATOM      9  C   UNL     1     -69.109 -57.154 -32.363  0.00  0.00    +0.000 A 
ATOM     10  C   UNL     1     -69.192 -57.092 -33.784  0.00  0.00    +0.000 A 
ATOM     11  C   UNL     1     -68.152 -57.881 -34.284  0.00  0.00    +0.000 A 
ATOM     12  C   UNL     1     -68.043 -57.960 -32.041  0.00  0.00    +0.000 A 
ATOM     13  C   UNL     1     -70.045 -56.448 -34.701  0.00  0.00    +0.000 A 
ATOM     14  C   UNL     1     -67.920 -58.059 -35.653  0.00  0.00    +0.000 A 
ATOM     15  C   UNL     1     -69.832 -56.611 -36.070  0.00  0.00    +0.000 A 
ATOM     16  C   UNL     1     -68.787 -57.403 -36.527  0.00  0.00    +0.000 A 
ATOM     17  H   UNL     1     -66.667 -59.004 -33.259  0.00  0.00    +0.000 HD
ENDBRANCH   3   9
BRANCH   4  20
ATOM     18 BR   UNL     1     -72.356 -59.255 -23.224  0.00  0.00    +0.000 Br
ATOM     19  N   UNL     1     -74.174 -56.374 -27.347  0.00  0.00    +0.000 N 
ATOM     20  C   UNL     1     -72.322 -56.394 -28.569  0.00  0.00    +0.000 A 
ATOM     21  C   UNL     1     -72.071 -57.128 -27.376  0.00  0.00    +0.000 A 
ATOM     22  C   UNL     1     -73.250 -57.099 -26.628  0.00  0.00    +0.000 A 
ATOM     23  C   UNL     1     -73.622 -55.944 -28.523  0.00  0.00    +0.000 A 
ATOM     24  C   UNL     1     -70.957 -57.815 -26.855  0.00  0.00    +0.000 A 
ATOM     25  C   UNL     1     -73.376 -57.722 -25.383  0.00  0.00    +0.000 A 
ATOM     26  C   UNL     1     -71.062 -58.445 -25.613  0.00  0.00    +0.000 A 
ATOM     27  C   UNL     1     -72.252 -58.393 -24.899  0.00  0.00    +0.000 A 
ATOM     28  H   UNL     1     -75.121 -56.189 -27.047  0.00  0.00    +0.000 HD
ENDBRANCH   4  20
TORSDOF 2
ENDMDL
MODEL 8
REMARK VINA RESULT:      -6.4      6.311     10.136
REMARK  Name = 179268_Nortopsentin.pdbqt.pdb
REMARK  2 active torsions:
REMARK  status: ('A' for Active; 'I' for Inactive)
REMARK    1  A    between atoms: C_3  and  C_9
REMARK    2  A    between atoms: C_4  and  C_20
REMARK                            x       y       z     vdW  Elec       q    Type
REMARK                         _______ _______ _______ _____ _____    ______ ____
ROOT
ATOM      1  N   UNL     1     -67.743 -56.451 -36.837  0.00  0.00    +0.000 N 
ATOM      2  N   UNL     1     -69.686 -57.508 -36.822  0.00  0.00    +0.000 NA
ATOM      3  C   UNL     1     -68.178 -56.447 -38.133  0.00  0.00    +0.000 A 
ATOM      4  C   UNL     1     -68.681 -57.101 -36.075  0.00  0.00    +0.000 A 
ATOM      5  C   UNL     1     -69.385 -57.108 -38.101  0.00  0.00    +0.000 A 
ATOM      6  H   UNL     1     -66.886 -56.050 -36.487  0.00  0.00    +0.000 HD
ENDROOT
BRANCH   3   9
ATOM      7 BR   UNL     1     -65.481 -57.482 -44.789  0.00  0.00    +0.000 Br
ATOM      8  N   UNL     1     -66.505 -54.341 -40.584  0.00  0.00    +0.000 N 
ATOM      9  C   UNL     1     -67.494 -55.859 -39.302  0.00  0.00    +0.000 A 
ATOM     10  C   UNL     1     -67.120 -56.489 -40.523  0.00  0.00    +0.000 A 
ATOM     11  C   UNL     1     -66.500 -55.511 -41.308  0.00  0.00    +0.000 A 
ATOM     12  C   UNL     1     -67.103 -54.543 -39.372  0.00  0.00    +0.000 A 
ATOM     13  C   UNL     1     -67.241 -57.791 -41.047  0.00  0.00    +0.000 A 
ATOM     14  C   UNL     1     -65.997 -55.767 -42.589  0.00  0.00    +0.000 A 
ATOM     15  C   UNL     1     -66.747 -58.069 -42.322  0.00  0.00    +0.000 A 
ATOM     16  C   UNL     1     -66.138 -57.069 -43.070  0.00  0.00    +0.000 A 
ATOM     17  H   UNL     1     -66.122 -53.460 -40.900  0.00  0.00    +0.000 HD
ENDBRANCH   3   9
BRANCH   4  20
ATOM     18 BR   UNL     1     -71.544 -55.794 -29.548  0.00  0.00    +0.000 Br
ATOM     19  N   UNL     1     -67.801 -58.018 -32.652  0.00  0.00    +0.000 N 
ATOM     20  C   UNL     1     -68.573 -57.312 -34.610  0.00  0.00    +0.000 A 
ATOM     21  C   UNL     1     -69.440 -56.825 -33.592  0.00  0.00    +0.000 A 
ATOM     22  C   UNL     1     -68.931 -57.283 -32.374  0.00  0.00    +0.000 A 
ATOM     23  C   UNL     1     -67.575 -58.041 -34.002  0.00  0.00    +0.000 A 
ATOM     24  C   UNL     1     -70.609 -56.040 -33.582  0.00  0.00    +0.000 A 
ATOM     25  C   UNL     1     -69.530 -56.998 -31.144  0.00  0.00    +0.000 A 
ATOM     26  C   UNL     1     -71.223 -55.742 -32.364  0.00  0.00    +0.000 A 
ATOM     27  C   UNL     1     -70.687 -56.216 -31.175  0.00  0.00    +0.000 A 
ATOM     28  H   UNL     1     -67.223 -58.473 -31.959  0.00  0.00    +0.000 HD
ENDBRANCH   4  20
TORSDOF 2
ENDMDL
MODEL 9
REMARK VINA RESULT:      -6.4     44.501     49.644
REMARK  Name = 179268_Nortopsentin.pdbqt.pdb
REMARK  2 active torsions:
REMARK  status: ('A' for Active; 'I' for Inactive)
REMARK    1  A    between atoms: C_3  and  C_9
REMARK    2  A    between atoms: C_4  and  C_20
REMARK                            x       y       z     vdW  Elec       q    Type
REMARK                         _______ _______ _______ _____ _____    ______ ____
ROOT
ATOM      1  N   UNL     1     -64.699 -60.177 -76.892  0.00  0.00    +0.000 N 
ATOM      2  N   UNL     1     -65.636 -62.170 -77.099  0.00  0.00    +0.000 NA
ATOM      3  C   UNL     1     -64.126 -60.745 -77.996  0.00  0.00    +0.000 A 
ATOM      4  C   UNL     1     -65.606 -61.069 -76.377  0.00  0.00    +0.000 A 
ATOM      5  C   UNL     1     -64.722 -61.981 -78.106  0.00  0.00    +0.000 A 
ATOM      6  H   UNL     1     -64.501 -59.265 -76.511  0.00  0.00    +0.000 HD
ENDROOT
BRANCH   3   9
ATOM      7 BR   UNL     1     -61.592 -54.791 -81.280  0.00  0.00    +0.000 Br
ATOM      8  N   UNL     1     -61.299 -60.013 -80.167  0.00  0.00    +0.000 N 
ATOM      9  C   UNL     1     -63.095 -60.151 -78.870  0.00  0.00    +0.000 A 
ATOM     10  C   UNL     1     -62.965 -58.800 -79.303  0.00  0.00    +0.000 A 
ATOM     11  C   UNL     1     -61.828 -58.744 -80.116  0.00  0.00    +0.000 A 
ATOM     12  C   UNL     1     -62.057 -60.868 -79.418  0.00  0.00    +0.000 A 
ATOM     13  C   UNL     1     -63.695 -57.615 -79.090  0.00  0.00    +0.000 A 
ATOM     14  C   UNL     1     -61.384 -57.565 -80.726  0.00  0.00    +0.000 A 
ATOM     15  C   UNL     1     -63.270 -56.428 -79.687  0.00  0.00    +0.000 A 
ATOM     16  C   UNL     1     -62.135 -56.414 -80.488  0.00  0.00    +0.000 A 
ATOM     17  H   UNL     1     -60.470 -60.277 -80.682  0.00  0.00    +0.000 HD
ENDBRANCH   3   9
BRANCH   4  20
ATOM     18 BR   UNL     1     -65.882 -60.953 -69.137  0.00  0.00    +0.000 Br
ATOM     19  N   UNL     1     -68.191 -60.302 -73.916  0.00  0.00    +0.000 N 
ATOM     20  C   UNL     1     -66.437 -60.821 -75.173  0.00  0.00    +0.000 A 
ATOM     21  C   UNL     1     -66.050 -60.928 -73.808  0.00  0.00    +0.000 A 
ATOM     22  C   UNL     1     -67.170 -60.597 -73.042  0.00  0.00    +0.000 A 
ATOM     23  C   UNL     1     -67.758 -60.436 -75.208  0.00  0.00    +0.000 A 
ATOM     24  C   UNL     1     -64.856 -61.272 -73.144  0.00  0.00    +0.000 A 
ATOM     25  C   UNL     1     -67.161 -60.592 -71.644  0.00  0.00    +0.000 A 
ATOM     26  C   UNL     1     -64.825 -61.275 -71.748  0.00  0.00    +0.000 A 
ATOM     27  C   UNL     1     -65.960 -60.940 -71.023  0.00  0.00    +0.000 A 
ATOM     28  H   UNL     1     -69.125 -60.028 -73.641  0.00  0.00    +0.000 HD
ENDBRANCH   4  20
TORSDOF 2
ENDMDL
