MODEL 1
REMARK VINA RESULT:      -4.1      0.000      0.000
REMARK  Name = 21574552_Mertensene.pdbqt.pdb
REMARK  1 active torsions:
REMARK  status: ('A' for Active; 'I' for Inactive)
REMARK    1  A    between atoms: C_4  and  C_13
REMARK                            x       y       z     vdW  Elec       q    Type
REMARK                         _______ _______ _______ _____ _____    ______ ____
ROOT
ATOM      1 BR   UNL     1     -66.843 -44.319 -58.588  0.00  0.00    +0.000 Br
ATOM      2 CL   UNL     1     -61.245 -46.321 -58.484  0.00  0.00    +0.000 Cl
ATOM      3 CL   UNL     1     -61.704 -43.386 -60.151  0.00  0.00    +0.000 Cl
ATOM      4  C   UNL     1     -65.041 -46.664 -59.018  0.00  0.00    +0.000 C 
ATOM      5  C   UNL     1     -63.631 -46.826 -59.391  0.00  0.00    +0.000 C 
ATOM      6  C   UNL     1     -62.421 -46.123 -59.807  0.00  0.00    +0.000 C 
ATOM      7  C   UNL     1     -65.304 -45.146 -59.184  0.00  0.00    +0.000 C 
ATOM      8  C   UNL     1     -62.837 -44.654 -59.958  0.00  0.00    +0.000 C 
ATOM      9  C   UNL     1     -64.192 -44.368 -59.620  0.00  0.00    +0.000 C 
ATOM     10  C   UNL     1     -65.942 -47.449 -59.997  0.00  0.00    +0.000 C 
ATOM     11  C   UNL     1     -61.815 -46.688 -61.096  0.00  0.00    +0.000 C 
ENDROOT
BRANCH   4  13
ATOM     12 CL   UNL     1     -65.701 -47.864 -54.813  0.00  0.00    +0.000 Cl
ATOM     13  C   UNL     1     -65.254 -47.067 -57.619  0.00  0.00    +0.000 C 
ATOM     14  C   UNL     1     -65.432 -47.394 -56.478  0.00  0.00    +0.000 C 
ENDBRANCH   4  13
TORSDOF 1
ENDMDL
MODEL 2
REMARK VINA RESULT:      -3.9     11.361     12.971
REMARK  Name = 21574552_Mertensene.pdbqt.pdb
REMARK  1 active torsions:
REMARK  status: ('A' for Active; 'I' for Inactive)
REMARK    1  A    between atoms: C_4  and  C_13
REMARK                            x       y       z     vdW  Elec       q    Type
REMARK                         _______ _______ _______ _____ _____    ______ ____
ROOT
ATOM      1 BR   UNL     1     -56.294 -58.630 -58.212  0.00  0.00    +0.000 Br
ATOM      2 CL   UNL     1     -59.355 -53.892 -60.094  0.00  0.00    +0.000 Cl
ATOM      3 CL   UNL     1     -59.898 -54.773 -56.849  0.00  0.00    +0.000 Cl
ATOM      4  C   UNL     1     -58.047 -57.502 -60.354  0.00  0.00    +0.000 C 
ATOM      5  C   UNL     1     -59.081 -56.462 -60.399  0.00  0.00    +0.000 C 
ATOM      6  C   UNL     1     -59.863 -55.525 -59.598  0.00  0.00    +0.000 C 
ATOM      7  C   UNL     1     -57.726 -57.651 -58.846  0.00  0.00    +0.000 C 
ATOM      8  C   UNL     1     -59.467 -55.806 -58.142  0.00  0.00    +0.000 C 
ATOM      9  C   UNL     1     -58.462 -56.802 -57.968  0.00  0.00    +0.000 C 
ATOM     10  C   UNL     1     -58.614 -58.836 -60.890  0.00  0.00    +0.000 C 
ATOM     11  C   UNL     1     -61.373 -55.663 -59.822  0.00  0.00    +0.000 C 
ENDROOT
BRANCH   4  13
ATOM     12 CL   UNL     1     -54.455 -56.194 -62.578  0.00  0.00    +0.000 Cl
ATOM     13  C   UNL     1     -56.848 -57.071 -61.089  0.00  0.00    +0.000 C 
ATOM     14  C   UNL     1     -55.872 -56.717 -61.691  0.00  0.00    +0.000 C 
ENDBRANCH   4  13
TORSDOF 1
ENDMDL
MODEL 3
REMARK VINA RESULT:      -3.8     11.616     12.875
REMARK  Name = 21574552_Mertensene.pdbqt.pdb
REMARK  1 active torsions:
REMARK  status: ('A' for Active; 'I' for Inactive)
REMARK    1  A    between atoms: C_4  and  C_13
REMARK                            x       y       z     vdW  Elec       q    Type
REMARK                         _______ _______ _______ _____ _____    ______ ____
ROOT
ATOM      1 BR   UNL     1     -59.121 -60.323 -59.354  0.00  0.00    +0.000 Br
ATOM      2 CL   UNL     1     -59.757 -54.638 -57.729  0.00  0.00    +0.000 Cl
ATOM      3 CL   UNL     1     -62.617 -56.184 -58.745  0.00  0.00    +0.000 Cl
ATOM      4  C   UNL     1     -58.083 -57.534 -59.634  0.00  0.00    +0.000 C 
ATOM      5  C   UNL     1     -58.675 -56.197 -59.510  0.00  0.00    +0.000 C 
ATOM      6  C   UNL     1     -59.917 -55.459 -59.302  0.00  0.00    +0.000 C 
ATOM      7  C   UNL     1     -59.296 -58.494 -59.536  0.00  0.00    +0.000 C 
ATOM      8  C   UNL     1     -61.020 -56.525 -59.256  0.00  0.00    +0.000 C 
ATOM      9  C   UNL     1     -60.567 -57.872 -59.364  0.00  0.00    +0.000 C 
ATOM     10  C   UNL     1     -57.416 -57.693 -61.018  0.00  0.00    +0.000 C 
ATOM     11  C   UNL     1     -60.176 -54.406 -60.385  0.00  0.00    +0.000 C 
ENDROOT
BRANCH   4  13
ATOM     12 CL   UNL     1     -55.264 -58.274 -56.308  0.00  0.00    +0.000 Cl
ATOM     13  C   UNL     1     -57.144 -57.787 -58.530  0.00  0.00    +0.000 C 
ATOM     14  C   UNL     1     -56.379 -57.990 -57.628  0.00  0.00    +0.000 C 
ENDBRANCH   4  13
TORSDOF 1
ENDMDL
MODEL 4
REMARK VINA RESULT:      -3.8     11.350     12.736
REMARK  Name = 21574552_Mertensene.pdbqt.pdb
REMARK  1 active torsions:
REMARK  status: ('A' for Active; 'I' for Inactive)
REMARK    1  A    between atoms: C_4  and  C_13
REMARK                            x       y       z     vdW  Elec       q    Type
REMARK                         _______ _______ _______ _____ _____    ______ ____
ROOT
ATOM      1 BR   UNL     1     -59.328 -54.584 -60.518  0.00  0.00    +0.000 Br
ATOM      2 CL   UNL     1     -61.921 -58.889 -57.340  0.00  0.00    +0.000 Cl
ATOM      3 CL   UNL     1     -62.292 -55.742 -56.092  0.00  0.00    +0.000 Cl
ATOM      4  C   UNL     1     -58.998 -57.270 -59.250  0.00  0.00    +0.000 C 
ATOM      5  C   UNL     1     -59.617 -57.955 -58.110  0.00  0.00    +0.000 C 
ATOM      6  C   UNL     1     -60.549 -57.808 -56.995  0.00  0.00    +0.000 C 
ATOM      7  C   UNL     1     -59.553 -55.826 -59.171  0.00  0.00    +0.000 C 
ATOM      8  C   UNL     1     -60.987 -56.337 -57.023  0.00  0.00    +0.000 C 
ATOM      9  C   UNL     1     -60.450 -55.564 -58.094  0.00  0.00    +0.000 C 
ATOM     10  C   UNL     1     -57.463 -57.238 -59.080  0.00  0.00    +0.000 C 
ATOM     11  C   UNL     1     -59.935 -58.202 -55.647  0.00  0.00    +0.000 C 
ENDROOT
BRANCH   4  13
ATOM     12 CL   UNL     1     -60.201 -59.172 -63.057  0.00  0.00    +0.000 Cl
ATOM     13  C   UNL     1     -59.405 -57.902 -60.515  0.00  0.00    +0.000 C 
ATOM     14  C   UNL     1     -59.734 -58.419 -61.547  0.00  0.00    +0.000 C 
ENDBRANCH   4  13
TORSDOF 1
ENDMDL
MODEL 5
REMARK VINA RESULT:      -3.8     10.710     11.661
REMARK  Name = 21574552_Mertensene.pdbqt.pdb
REMARK  1 active torsions:
REMARK  status: ('A' for Active; 'I' for Inactive)
REMARK    1  A    between atoms: C_4  and  C_13
REMARK                            x       y       z     vdW  Elec       q    Type
REMARK                         _______ _______ _______ _____ _____    ______ ____
ROOT
ATOM      1 BR   UNL     1     -60.546 -59.236 -56.472  0.00  0.00    +0.000 Br
ATOM      2 CL   UNL     1     -61.223 -55.036 -60.627  0.00  0.00    +0.000 Cl
ATOM      3 CL   UNL     1     -59.900 -57.973 -61.736  0.00  0.00    +0.000 Cl
ATOM      4  C   UNL     1     -60.090 -56.374 -57.201  0.00  0.00    +0.000 C 
ATOM      5  C   UNL     1     -59.913 -55.647 -58.463  0.00  0.00    +0.000 C 
ATOM      6  C   UNL     1     -59.777 -55.788 -59.910  0.00  0.00    +0.000 C 
ATOM      7  C   UNL     1     -60.084 -57.866 -57.619  0.00  0.00    +0.000 C 
ATOM      8  C   UNL     1     -59.756 -57.300 -60.170  0.00  0.00    +0.000 C 
ATOM      9  C   UNL     1     -59.923 -58.118 -59.014  0.00  0.00    +0.000 C 
ATOM     10  C   UNL     1     -58.894 -56.103 -56.260  0.00  0.00    +0.000 C 
ATOM     11  C   UNL     1     -58.530 -55.090 -60.463  0.00  0.00    +0.000 C 
ENDROOT
BRANCH   4  13
ATOM     12 CL   UNL     1     -63.969 -55.326 -55.354  0.00  0.00    +0.000 Cl
ATOM     13  C   UNL     1     -61.377 -56.025 -56.580  0.00  0.00    +0.000 C 
ATOM     14  C   UNL     1     -62.429 -55.740 -56.077  0.00  0.00    +0.000 C 
ENDBRANCH   4  13
TORSDOF 1
ENDMDL
MODEL 6
REMARK VINA RESULT:      -3.7     11.681     12.923
REMARK  Name = 21574552_Mertensene.pdbqt.pdb
REMARK  1 active torsions:
REMARK  status: ('A' for Active; 'I' for Inactive)
REMARK    1  A    between atoms: C_4  and  C_13
REMARK                            x       y       z     vdW  Elec       q    Type
REMARK                         _______ _______ _______ _____ _____    ______ ____
ROOT
ATOM      1 BR   UNL     1     -61.531 -58.499 -58.722  0.00  0.00    +0.000 Br
ATOM      2 CL   UNL     1     -56.574 -56.689 -55.983  0.00  0.00    +0.000 Cl
ATOM      3 CL   UNL     1     -57.384 -59.962 -55.501  0.00  0.00    +0.000 Cl
ATOM      4  C   UNL     1     -60.280 -56.416 -56.983  0.00  0.00    +0.000 C 
ATOM      5  C   UNL     1     -59.159 -56.401 -56.036  0.00  0.00    +0.000 C 
ATOM      6  C   UNL     1     -58.156 -57.222 -55.365  0.00  0.00    +0.000 C 
ATOM      7  C   UNL     1     -60.444 -57.912 -57.351  0.00  0.00    +0.000 C 
ATOM      8  C   UNL     1     -58.458 -58.664 -55.795  0.00  0.00    +0.000 C 
ATOM      9  C   UNL     1     -59.531 -58.809 -56.722  0.00  0.00    +0.000 C 
ATOM     10  C   UNL     1     -61.567 -55.916 -56.289  0.00  0.00    +0.000 C 
ATOM     11  C   UNL     1     -58.172 -57.059 -53.841  0.00  0.00    +0.000 C 
ENDROOT
BRANCH   4  13
ATOM     12 CL   UNL     1     -59.286 -54.071 -60.599  0.00  0.00    +0.000 Cl
ATOM     13  C   UNL     1     -59.953 -55.630 -58.183  0.00  0.00    +0.000 C 
ATOM     14  C   UNL     1     -59.684 -54.992 -59.163  0.00  0.00    +0.000 C 
ENDBRANCH   4  13
TORSDOF 1
ENDMDL
MODEL 7
REMARK VINA RESULT:      -3.7     11.999     12.948
REMARK  Name = 21574552_Mertensene.pdbqt.pdb
REMARK  1 active torsions:
REMARK  status: ('A' for Active; 'I' for Inactive)
REMARK    1  A    between atoms: C_4  and  C_13
REMARK                            x       y       z     vdW  Elec       q    Type
REMARK                         _______ _______ _______ _____ _____    ______ ____
ROOT
ATOM      1 BR   UNL     1     -59.427 -54.794 -60.332  0.00  0.00    +0.000 Br
ATOM      2 CL   UNL     1     -59.192 -60.573 -58.954  0.00  0.00    +0.000 Cl
ATOM      3 CL   UNL     1     -59.294 -59.881 -62.287  0.00  0.00    +0.000 Cl
ATOM      4  C   UNL     1     -60.565 -56.991 -58.655  0.00  0.00    +0.000 C 
ATOM      5  C   UNL     1     -60.682 -58.446 -58.804  0.00  0.00    +0.000 C 
ATOM      6  C   UNL     1     -60.459 -59.573 -59.705  0.00  0.00    +0.000 C 
ATOM      7  C   UNL     1     -60.029 -56.512 -60.028  0.00  0.00    +0.000 C 
ATOM      8  C   UNL     1     -59.964 -58.951 -61.018  0.00  0.00    +0.000 C 
ATOM      9  C   UNL     1     -59.806 -57.534 -60.997  0.00  0.00    +0.000 C 
ATOM     10  C   UNL     1     -61.958 -56.369 -58.406  0.00  0.00    +0.000 C 
ATOM     11  C   UNL     1     -61.711 -60.432 -59.909  0.00  0.00    +0.000 C 
ENDROOT
BRANCH   4  13
ATOM     12 CL   UNL     1     -57.683 -56.006 -55.449  0.00  0.00    +0.000 Cl
ATOM     13  C   UNL     1     -59.607 -56.656 -57.590  0.00  0.00    +0.000 C 
ATOM     14  C   UNL     1     -58.825 -56.386 -56.721  0.00  0.00    +0.000 C 
ENDBRANCH   4  13
TORSDOF 1
ENDMDL
MODEL 8
REMARK VINA RESULT:      -3.7     12.038     12.924
REMARK  Name = 21574552_Mertensene.pdbqt.pdb
REMARK  1 active torsions:
REMARK  status: ('A' for Active; 'I' for Inactive)
REMARK    1  A    between atoms: C_4  and  C_13
REMARK                            x       y       z     vdW  Elec       q    Type
REMARK                         _______ _______ _______ _____ _____    ______ ____
ROOT
ATOM      1 BR   UNL     1     -58.452 -59.203 -61.922  0.00  0.00    +0.000 Br
ATOM      2 CL   UNL     1     -62.356 -55.929 -58.856  0.00  0.00    +0.000 Cl
ATOM      3 CL   UNL     1     -60.135 -54.156 -60.733  0.00  0.00    +0.000 Cl
ATOM      4  C   UNL     1     -59.742 -58.723 -59.269  0.00  0.00    +0.000 C 
ATOM      5  C   UNL     1     -60.342 -57.558 -58.610  0.00  0.00    +0.000 C 
ATOM      6  C   UNL     1     -60.591 -56.123 -58.723  0.00  0.00    +0.000 C 
ATOM      7  C   UNL     1     -59.111 -58.145 -60.561  0.00  0.00    +0.000 C 
ATOM      8  C   UNL     1     -59.890 -55.689 -60.017  0.00  0.00    +0.000 C 
ATOM      9  C   UNL     1     -59.269 -56.741 -60.753  0.00  0.00    +0.000 C 
ATOM     10  C   UNL     1     -58.629 -59.322 -58.380  0.00  0.00    +0.000 C 
ATOM     11  C   UNL     1     -60.098 -55.334 -57.506  0.00  0.00    +0.000 C 
ENDROOT
BRANCH   4  13
ATOM     12 CL   UNL     1     -62.841 -61.713 -60.277  0.00  0.00    +0.000 Cl
ATOM     13  C   UNL     1     -60.777 -59.713 -59.609  0.00  0.00    +0.000 C 
ATOM     14  C   UNL     1     -61.619 -60.523 -59.884  0.00  0.00    +0.000 C 
ENDBRANCH   4  13
TORSDOF 1
ENDMDL
MODEL 9
REMARK VINA RESULT:      -3.7     37.348     38.742
REMARK  Name = 21574552_Mertensene.pdbqt.pdb
REMARK  1 active torsions:
REMARK  status: ('A' for Active; 'I' for Inactive)
REMARK    1  A    between atoms: C_4  and  C_13
REMARK                            x       y       z     vdW  Elec       q    Type
REMARK                         _______ _______ _______ _____ _____    ______ ____
ROOT
ATOM      1 BR   UNL     1     -73.761 -57.474 -26.646  0.00  0.00    +0.000 Br
ATOM      2 CL   UNL     1     -75.691 -56.602 -21.090  0.00  0.00    +0.000 Cl
ATOM      3 CL   UNL     1     -75.011 -53.766 -22.850  0.00  0.00    +0.000 Cl
ATOM      4  C   UNL     1     -73.458 -58.227 -23.770  0.00  0.00    +0.000 C 
ATOM      5  C   UNL     1     -73.716 -57.550 -22.494  0.00  0.00    +0.000 C 
ATOM      6  C   UNL     1     -74.123 -56.292 -21.874  0.00  0.00    +0.000 C 
ATOM      7  C   UNL     1     -73.680 -57.124 -24.835  0.00  0.00    +0.000 C 
ATOM      8  C   UNL     1     -74.274 -55.298 -23.034  0.00  0.00    +0.000 C 
ATOM      9  C   UNL     1     -74.050 -55.842 -24.333  0.00  0.00    +0.000 C 
ATOM     10  C   UNL     1     -71.990 -58.706 -23.829  0.00  0.00    +0.000 C 
ATOM     11  C   UNL     1     -73.130 -55.798 -20.817  0.00  0.00    +0.000 C 
ENDROOT
BRANCH   4  13
ATOM     12 CL   UNL     1     -76.310 -61.553 -24.375  0.00  0.00    +0.000 Cl
ATOM     13  C   UNL     1     -74.412 -59.329 -23.972  0.00  0.00    +0.000 C 
ATOM     14  C   UNL     1     -75.188 -60.230 -24.136  0.00  0.00    +0.000 C 
ENDBRANCH   4  13
TORSDOF 1
ENDMDL
