MODEL 1
REMARK VINA RESULT:      -7.0      0.000      0.000
REMARK  Name = 222284_BetaSitosterol.pdbqt.pdb
REMARK  5 active torsions:
REMARK  status: ('A' for Active; 'I' for Inactive)
REMARK    1  A    between atoms: C_5  and  C_22
REMARK    2  A    between atoms: C_19  and  O_20
REMARK    3  A    between atoms: C_22  and  C_24
REMARK    4  A    between atoms: C_25  and  C_26
REMARK    5  A    between atoms: C_26  and  C_30
REMARK                            x       y       z     vdW  Elec       q    Type
REMARK                         _______ _______ _______ _____ _____    ______ ____
ROOT
ATOM      1  C   UNL     1     -66.730 -47.446 -54.333  0.00  0.00    +0.000 C 
ATOM      2  C   UNL     1     -66.910 -48.072 -55.809  0.00  0.00    +0.000 C 
ATOM      3  C   UNL     1     -66.209 -47.519 -56.985  0.00  0.00    +0.000 C 
ATOM      4  C   UNL     1     -65.060 -46.543 -56.953  0.00  0.00    +0.000 C 
ATOM      5  C   UNL     1     -66.604 -48.669 -53.438  0.00  0.00    +0.000 C 
ATOM      6  C   UNL     1     -65.509 -46.642 -54.408  0.00  0.00    +0.000 C 
ATOM      7  C   UNL     1     -64.410 -45.934 -58.225  0.00  0.00    +0.000 C 
ATOM      8  C   UNL     1     -67.032 -49.489 -55.653  0.00  0.00    +0.000 C 
ATOM      9  C   UNL     1     -64.728 -46.189 -55.617  0.00  0.00    +0.000 C 
ATOM     10  C   UNL     1     -66.802 -49.850 -54.210  0.00  0.00    +0.000 C 
ATOM     11  C   UNL     1     -66.493 -47.986 -58.292  0.00  0.00    +0.000 C 
ATOM     12  C   UNL     1     -68.002 -46.625 -53.998  0.00  0.00    +0.000 C 
ATOM     13  C   UNL     1     -64.760 -46.754 -59.616  0.00  0.00    +0.000 C 
ATOM     14  C   UNL     1     -62.923 -46.006 -58.130  0.00  0.00    +0.000 C 
ATOM     15  C   UNL     1     -65.757 -47.582 -59.534  0.00  0.00    +0.000 C 
ATOM     16  C   UNL     1     -64.924 -44.476 -58.409  0.00  0.00    +0.000 C 
ATOM     17  C   UNL     1     -63.616 -47.157 -60.401  0.00  0.00    +0.000 C 
ATOM     18  C   UNL     1     -61.813 -46.543 -59.050  0.00  0.00    +0.000 C 
ATOM     19  C   UNL     1     -62.189 -47.142 -60.288  0.00  0.00    +0.000 C 
ENDROOT
BRANCH  19  20
ATOM     20  O   UNL     1     -61.377 -47.081 -61.382  0.00  0.00    +0.000 OA
ATOM     21  H   UNL     1     -60.501 -47.459 -61.197  0.00  0.00    +0.000 HD
ENDBRANCH  19  20
BRANCH   5  22
ATOM     22  C   UNL     1     -66.276 -48.632 -52.046  0.00  0.00    +0.000 C 
ATOM     23  C   UNL     1     -67.033 -49.432 -51.016  0.00  0.00    +0.000 C 
BRANCH  22  24
ATOM     24  C   UNL     1     -65.200 -47.853 -51.542  0.00  0.00    +0.000 C 
ATOM     25  C   UNL     1     -64.048 -47.013 -50.971  0.00  0.00    +0.000 C 
BRANCH  25  26
ATOM     26  C   UNL     1     -62.989 -46.222 -50.430  0.00  0.00    +0.000 C 
ATOM     27  C   UNL     1     -62.254 -45.302 -51.269  0.00  0.00    +0.000 C 
ATOM     28  C   UNL     1     -62.571 -45.113 -52.741  0.00  0.00    +0.000 C 
ATOM     29  C   UNL     1     -61.092 -44.467 -50.778  0.00  0.00    +0.000 C 
BRANCH  26  30
ATOM     30  C   UNL     1     -62.657 -46.331 -49.053  0.00  0.00    +0.000 C 
ATOM     31  C   UNL     1     -62.341 -46.416 -47.556  0.00  0.00    +0.000 C 
ENDBRANCH  26  30
ENDBRANCH  25  26
ENDBRANCH  22  24
ENDBRANCH   5  22
TORSDOF 5
ENDMDL
MODEL 2
REMARK VINA RESULT:      -6.7     32.542     36.027
REMARK  Name = 222284_BetaSitosterol.pdbqt.pdb
REMARK  5 active torsions:
REMARK  status: ('A' for Active; 'I' for Inactive)
REMARK    1  A    between atoms: C_5  and  C_22
REMARK    2  A    between atoms: C_19  and  O_20
REMARK    3  A    between atoms: C_22  and  C_24
REMARK    4  A    between atoms: C_25  and  C_26
REMARK    5  A    between atoms: C_26  and  C_30
REMARK                            x       y       z     vdW  Elec       q    Type
REMARK                         _______ _______ _______ _____ _____    ______ ____
ROOT
ATOM      1  C   UNL     1     -73.937 -57.467 -23.445  0.00  0.00    +0.000 C 
ATOM      2  C   UNL     1     -74.742 -56.097 -23.722  0.00  0.00    +0.000 C 
ATOM      3  C   UNL     1     -74.887 -55.050 -22.690  0.00  0.00    +0.000 C 
ATOM      4  C   UNL     1     -74.107 -54.963 -21.402  0.00  0.00    +0.000 C 
ATOM      5  C   UNL     1     -73.125 -57.671 -24.715  0.00  0.00    +0.000 C 
ATOM      6  C   UNL     1     -73.121 -57.195 -22.260  0.00  0.00    +0.000 C 
ATOM      7  C   UNL     1     -74.357 -53.882 -20.316  0.00  0.00    +0.000 C 
ATOM      8  C   UNL     1     -74.486 -55.728 -25.081  0.00  0.00    +0.000 C 
ATOM      9  C   UNL     1     -73.198 -56.049 -21.281  0.00  0.00    +0.000 C 
ATOM     10  C   UNL     1     -73.468 -56.668 -25.667  0.00  0.00    +0.000 C 
ATOM     11  C   UNL     1     -75.720 -53.924 -22.903  0.00  0.00    +0.000 C 
ATOM     12  C   UNL     1     -74.972 -58.604 -23.244  0.00  0.00    +0.000 C 
ATOM     13  C   UNL     1     -75.219 -52.579 -20.850  0.00  0.00    +0.000 C 
ATOM     14  C   UNL     1     -73.061 -53.295 -19.865  0.00  0.00    +0.000 C 
ATOM     15  C   UNL     1     -75.841 -52.752 -21.977  0.00  0.00    +0.000 C 
ATOM     16  C   UNL     1     -75.161 -54.517 -19.144  0.00  0.00    +0.000 C 
ATOM     17  C   UNL     1     -74.607 -51.292 -20.613  0.00  0.00    +0.000 C 
ATOM     18  C   UNL     1     -72.521 -51.860 -19.729  0.00  0.00    +0.000 C 
ATOM     19  C   UNL     1     -73.369 -50.779 -20.110  0.00  0.00    +0.000 C 
ENDROOT
BRANCH  19  20
ATOM     20  O   UNL     1     -73.284 -49.561 -19.501  0.00  0.00    +0.000 OA
ATOM     21  H   UNL     1     -72.852 -48.906 -20.075  0.00  0.00    +0.000 HD
ENDBRANCH  19  20
BRANCH   5  22
ATOM     22  C   UNL     1     -72.129 -58.680 -24.894  0.00  0.00    +0.000 C 
ATOM     23  C   UNL     1     -70.990 -58.527 -25.870  0.00  0.00    +0.000 C 
BRANCH  22  24
ATOM     24  C   UNL     1     -72.135 -59.890 -24.148  0.00  0.00    +0.000 C 
ATOM     25  C   UNL     1     -72.116 -61.190 -23.330  0.00  0.00    +0.000 C 
BRANCH  25  26
ATOM     26  C   UNL     1     -72.080 -62.400 -22.573  0.00  0.00    +0.000 C 
ATOM     27  C   UNL     1     -73.119 -63.395 -22.726  0.00  0.00    +0.000 C 
ATOM     28  C   UNL     1     -74.274 -63.223 -23.694  0.00  0.00    +0.000 C 
ATOM     29  C   UNL     1     -73.173 -64.678 -21.925  0.00  0.00    +0.000 C 
BRANCH  26  30
ATOM     30  C   UNL     1     -71.013 -62.638 -21.667  0.00  0.00    +0.000 C 
ATOM     31  C   UNL     1     -69.891 -62.873 -20.648  0.00  0.00    +0.000 C 
ENDBRANCH  26  30
ENDBRANCH  25  26
ENDBRANCH  22  24
ENDBRANCH   5  22
TORSDOF 5
ENDMDL
MODEL 3
REMARK VINA RESULT:      -6.6     20.238     25.157
REMARK  Name = 222284_BetaSitosterol.pdbqt.pdb
REMARK  5 active torsions:
REMARK  status: ('A' for Active; 'I' for Inactive)
REMARK    1  A    between atoms: C_5  and  C_22
REMARK    2  A    between atoms: C_19  and  O_20
REMARK    3  A    between atoms: C_22  and  C_24
REMARK    4  A    between atoms: C_25  and  C_26
REMARK    5  A    between atoms: C_26  and  C_30
REMARK                            x       y       z     vdW  Elec       q    Type
REMARK                         _______ _______ _______ _____ _____    ______ ____
ROOT
ATOM      1  C   UNL     1     -49.383 -56.854 -72.176  0.00  0.00    +0.000 C 
ATOM      2  C   UNL     1     -49.522 -57.199 -73.745  0.00  0.00    +0.000 C 
ATOM      3  C   UNL     1     -49.611 -58.590 -74.237  0.00  0.00    +0.000 C 
ATOM      4  C   UNL     1     -49.873 -59.812 -73.392  0.00  0.00    +0.000 C 
ATOM      5  C   UNL     1     -50.332 -55.681 -71.981  0.00  0.00    +0.000 C 
ATOM      6  C   UNL     1     -49.801 -58.072 -71.480  0.00  0.00    +0.000 C 
ATOM      7  C   UNL     1     -49.878 -61.260 -73.952  0.00  0.00    +0.000 C 
ATOM      8  C   UNL     1     -50.344 -56.184 -74.328  0.00  0.00    +0.000 C 
ATOM      9  C   UNL     1     -50.012 -59.465 -72.021  0.00  0.00    +0.000 C 
ATOM     10  C   UNL     1     -50.869 -55.286 -73.240  0.00  0.00    +0.000 C 
ATOM     11  C   UNL     1     -49.584 -58.878 -75.623  0.00  0.00    +0.000 C 
ATOM     12  C   UNL     1     -47.913 -56.447 -71.899  0.00  0.00    +0.000 C 
ATOM     13  C   UNL     1     -50.019 -61.345 -75.596  0.00  0.00    +0.000 C 
ATOM     14  C   UNL     1     -51.073 -62.003 -73.451  0.00  0.00    +0.000 C 
ATOM     15  C   UNL     1     -49.789 -60.234 -76.228  0.00  0.00    +0.000 C 
ATOM     16  C   UNL     1     -48.541 -61.958 -73.568  0.00  0.00    +0.000 C 
ATOM     17  C   UNL     1     -51.088 -62.186 -76.083  0.00  0.00    +0.000 C 
ATOM     18  C   UNL     1     -52.190 -62.818 -74.124  0.00  0.00    +0.000 C 
ATOM     19  C   UNL     1     -52.181 -62.936 -75.545  0.00  0.00    +0.000 C 
ENDROOT
BRANCH  19  20
ATOM     20  O   UNL     1     -52.676 -64.044 -76.169  0.00  0.00    +0.000 OA
ATOM     21  H   UNL     1     -52.969 -64.713 -75.527  0.00  0.00    +0.000 HD
ENDBRANCH  19  20
BRANCH   5  22
ATOM     22  C   UNL     1     -50.674 -55.109 -70.716  0.00  0.00    +0.000 C 
ATOM     23  C   UNL     1     -49.978 -53.890 -70.166  0.00  0.00    +0.000 C 
BRANCH  22  24
ATOM     24  C   UNL     1     -51.709 -55.640 -69.899  0.00  0.00    +0.000 C 
ATOM     25  C   UNL     1     -52.815 -56.241 -69.020  0.00  0.00    +0.000 C 
BRANCH  25  26
ATOM     26  C   UNL     1     -53.846 -56.814 -68.215  0.00  0.00    +0.000 C 
ATOM     27  C   UNL     1     -54.900 -57.601 -68.818  0.00  0.00    +0.000 C 
ATOM     28  C   UNL     1     -54.959 -57.874 -70.309  0.00  0.00    +0.000 C 
ATOM     29  C   UNL     1     -56.049 -58.199 -68.037  0.00  0.00    +0.000 C 
BRANCH  26  30
ATOM     30  C   UNL     1     -53.838 -56.619 -66.808  0.00  0.00    +0.000 C 
ATOM     31  C   UNL     1     -53.785 -56.376 -65.295  0.00  0.00    +0.000 C 
ENDBRANCH  26  30
ENDBRANCH  25  26
ENDBRANCH  22  24
ENDBRANCH   5  22
TORSDOF 5
ENDMDL
MODEL 4
REMARK VINA RESULT:      -6.5     25.482     31.028
REMARK  Name = 222284_BetaSitosterol.pdbqt.pdb
REMARK  5 active torsions:
REMARK  status: ('A' for Active; 'I' for Inactive)
REMARK    1  A    between atoms: C_5  and  C_22
REMARK    2  A    between atoms: C_19  and  O_20
REMARK    3  A    between atoms: C_22  and  C_24
REMARK    4  A    between atoms: C_25  and  C_26
REMARK    5  A    between atoms: C_26  and  C_30
REMARK                            x       y       z     vdW  Elec       q    Type
REMARK                         _______ _______ _______ _____ _____    ______ ____
ROOT
ATOM      1  C   UNL     1     -72.162 -57.568 -28.712  0.00  0.00    +0.000 C 
ATOM      2  C   UNL     1     -73.704 -57.567 -28.241  0.00  0.00    +0.000 C 
ATOM      3  C   UNL     1     -74.101 -57.891 -26.855  0.00  0.00    +0.000 C 
ATOM      4  C   UNL     1     -73.176 -57.973 -25.666  0.00  0.00    +0.000 C 
ATOM      5  C   UNL     1     -72.048 -56.318 -29.572  0.00  0.00    +0.000 C 
ATOM      6  C   UNL     1     -71.385 -57.503 -27.472  0.00  0.00    +0.000 C 
ATOM      7  C   UNL     1     -73.636 -58.395 -24.244  0.00  0.00    +0.000 C 
ATOM      8  C   UNL     1     -74.355 -56.500 -28.937  0.00  0.00    +0.000 C 
ATOM      9  C   UNL     1     -71.831 -57.711 -26.045  0.00  0.00    +0.000 C 
ATOM     10  C   UNL     1     -73.331 -55.718 -29.715  0.00  0.00    +0.000 C 
ATOM     11  C   UNL     1     -75.464 -58.029 -26.498  0.00  0.00    +0.000 C 
ATOM     12  C   UNL     1     -71.910 -58.853 -29.541  0.00  0.00    +0.000 C 
ATOM     13  C   UNL     1     -75.271 -58.319 -24.017  0.00  0.00    +0.000 C 
ATOM     14  C   UNL     1     -73.089 -57.453 -23.224  0.00  0.00    +0.000 C 
ATOM     15  C   UNL     1     -75.977 -58.234 -25.104  0.00  0.00    +0.000 C 
ATOM     16  C   UNL     1     -73.205 -59.867 -23.987  0.00  0.00    +0.000 C 
ATOM     17  C   UNL     1     -75.703 -57.546 -22.876  0.00  0.00    +0.000 C 
ATOM     18  C   UNL     1     -73.707 -56.631 -22.080  0.00  0.00    +0.000 C 
ATOM     19  C   UNL     1     -75.117 -56.703 -21.879  0.00  0.00    +0.000 C 
ENDROOT
BRANCH  19  20
ATOM     20  O   UNL     1     -75.665 -56.560 -20.638  0.00  0.00    +0.000 OA
ATOM     21  H   UNL     1     -76.283 -57.283 -20.435  0.00  0.00    +0.000 HD
ENDBRANCH  19  20
BRANCH   5  22
ATOM     22  C   UNL     1     -70.825 -55.800 -30.102  0.00  0.00    +0.000 C 
ATOM     23  C   UNL     1     -70.037 -54.719 -29.406  0.00  0.00    +0.000 C 
BRANCH  22  24
ATOM     24  C   UNL     1     -70.259 -56.284 -31.312  0.00  0.00    +0.000 C 
ATOM     25  C   UNL     1     -69.632 -56.782 -32.623  0.00  0.00    +0.000 C 
BRANCH  25  26
ATOM     26  C   UNL     1     -69.053 -57.229 -33.849  0.00  0.00    +0.000 C 
ATOM     27  C   UNL     1     -67.892 -58.092 -33.844  0.00  0.00    +0.000 C 
ATOM     28  C   UNL     1     -67.247 -58.579 -32.560  0.00  0.00    +0.000 C 
ATOM     29  C   UNL     1     -67.197 -58.566 -35.101  0.00  0.00    +0.000 C 
BRANCH  26  30
ATOM     30  C   UNL     1     -69.623 -56.831 -35.088  0.00  0.00    +0.000 C 
ATOM     31  C   UNL     1     -70.190 -56.414 -36.450  0.00  0.00    +0.000 C 
ENDBRANCH  26  30
ENDBRANCH  25  26
ENDBRANCH  22  24
ENDBRANCH   5  22
TORSDOF 5
ENDMDL
MODEL 5
REMARK VINA RESULT:      -6.4     19.726     24.323
REMARK  Name = 222284_BetaSitosterol.pdbqt.pdb
REMARK  5 active torsions:
REMARK  status: ('A' for Active; 'I' for Inactive)
REMARK    1  A    between atoms: C_5  and  C_22
REMARK    2  A    between atoms: C_19  and  O_20
REMARK    3  A    between atoms: C_22  and  C_24
REMARK    4  A    between atoms: C_25  and  C_26
REMARK    5  A    between atoms: C_26  and  C_30
REMARK                            x       y       z     vdW  Elec       q    Type
REMARK                         _______ _______ _______ _____ _____    ______ ____
ROOT
ATOM      1  C   UNL     1     -70.223 -57.516 -33.661  0.00  0.00    +0.000 C 
ATOM      2  C   UNL     1     -69.068 -58.182 -34.570  0.00  0.00    +0.000 C 
ATOM      3  C   UNL     1     -68.905 -57.847 -35.999  0.00  0.00    +0.000 C 
ATOM      4  C   UNL     1     -69.551 -56.687 -36.716  0.00  0.00    +0.000 C 
ATOM      5  C   UNL     1     -69.511 -57.194 -32.356  0.00  0.00    +0.000 C 
ATOM      6  C   UNL     1     -70.657 -56.332 -34.405  0.00  0.00    +0.000 C 
ATOM      7  C   UNL     1     -69.406 -56.427 -38.240  0.00  0.00    +0.000 C 
ATOM      8  C   UNL     1     -67.914 -58.334 -33.738  0.00  0.00    +0.000 C 
ATOM      9  C   UNL     1     -70.376 -55.937 -35.834  0.00  0.00    +0.000 C 
ATOM     10  C   UNL     1     -68.178 -57.692 -32.402  0.00  0.00    +0.000 C 
ATOM     11  C   UNL     1     -67.984 -58.548 -36.815  0.00  0.00    +0.000 C 
ATOM     12  C   UNL     1     -71.341 -58.570 -33.453  0.00  0.00    +0.000 C 
ATOM     13  C   UNL     1     -68.151 -57.239 -38.943  0.00  0.00    +0.000 C 
ATOM     14  C   UNL     1     -69.090 -54.990 -38.491  0.00  0.00    +0.000 C 
ATOM     15  C   UNL     1     -67.655 -58.209 -38.237  0.00  0.00    +0.000 C 
ATOM     16  C   UNL     1     -70.709 -56.884 -38.958  0.00  0.00    +0.000 C 
ATOM     17  C   UNL     1     -67.230 -56.420 -39.698  0.00  0.00    +0.000 C 
ATOM     18  C   UNL     1     -68.000 -54.254 -39.288  0.00  0.00    +0.000 C 
ATOM     19  C   UNL     1     -67.011 -55.031 -39.960  0.00  0.00    +0.000 C 
ENDROOT
BRANCH  19  20
ATOM     20  O   UNL     1     -66.429 -54.594 -41.114  0.00  0.00    +0.000 OA
ATOM     21  H   UNL     1     -66.261 -53.637 -41.089  0.00  0.00    +0.000 HD
ENDBRANCH  19  20
BRANCH   5  22
ATOM     22  C   UNL     1     -70.083 -56.450 -31.277  0.00  0.00    +0.000 C 
ATOM     23  C   UNL     1     -69.976 -54.949 -31.184  0.00  0.00    +0.000 C 
BRANCH  22  24
ATOM     24  C   UNL     1     -70.809 -57.076 -30.227  0.00  0.00    +0.000 C 
ATOM     25  C   UNL     1     -71.574 -57.772 -29.092  0.00  0.00    +0.000 C 
BRANCH  25  26
ATOM     26  C   UNL     1     -72.283 -58.437 -28.046  0.00  0.00    +0.000 C 
ATOM     27  C   UNL     1     -73.553 -59.078 -28.309  0.00  0.00    +0.000 C 
ATOM     28  C   UNL     1     -74.185 -59.096 -29.688  0.00  0.00    +0.000 C 
ATOM     29  C   UNL     1     -74.383 -59.759 -27.243  0.00  0.00    +0.000 C 
BRANCH  26  30
ATOM     30  C   UNL     1     -71.737 -58.480 -26.736  0.00  0.00    +0.000 C 
ATOM     31  C   UNL     1     -71.168 -58.576 -25.315  0.00  0.00    +0.000 C 
ENDBRANCH  26  30
ENDBRANCH  25  26
ENDBRANCH  22  24
ENDBRANCH   5  22
TORSDOF 5
ENDMDL
MODEL 6
REMARK VINA RESULT:      -6.4     28.282     33.195
REMARK  Name = 222284_BetaSitosterol.pdbqt.pdb
REMARK  5 active torsions:
REMARK  status: ('A' for Active; 'I' for Inactive)
REMARK    1  A    between atoms: C_5  and  C_22
REMARK    2  A    between atoms: C_19  and  O_20
REMARK    3  A    between atoms: C_22  and  C_24
REMARK    4  A    between atoms: C_25  and  C_26
REMARK    5  A    between atoms: C_26  and  C_30
REMARK                            x       y       z     vdW  Elec       q    Type
REMARK                         _______ _______ _______ _____ _____    ______ ____
ROOT
ATOM      1  C   UNL     1     -48.630 -61.182 -79.389  0.00  0.00    +0.000 C 
ATOM      2  C   UNL     1     -48.257 -61.747 -80.853  0.00  0.00    +0.000 C 
ATOM      3  C   UNL     1     -47.633 -63.072 -81.045  0.00  0.00    +0.000 C 
ATOM      4  C   UNL     1     -47.528 -64.160 -80.006  0.00  0.00    +0.000 C 
ATOM      5  C   UNL     1     -50.006 -60.562 -79.583  0.00  0.00    +0.000 C 
ATOM      6  C   UNL     1     -48.630 -62.356 -78.516  0.00  0.00    +0.000 C 
ATOM      7  C   UNL     1     -46.791 -65.507 -80.240  0.00  0.00    +0.000 C 
ATOM      8  C   UNL     1     -49.283 -61.306 -81.747  0.00  0.00    +0.000 C 
ATOM      9  C   UNL     1     -48.101 -63.746 -78.773  0.00  0.00    +0.000 C 
ATOM     10  C   UNL     1     -50.366 -60.620 -80.960  0.00  0.00    +0.000 C 
ATOM     11  C   UNL     1     -47.179 -63.489 -82.321  0.00  0.00    +0.000 C 
ATOM     12  C   UNL     1     -47.576 -60.113 -79.001  0.00  0.00    +0.000 C 
ATOM     13  C   UNL     1     -46.514 -65.854 -81.831  0.00  0.00    +0.000 C 
ATOM     14  C   UNL     1     -47.632 -66.645 -79.766  0.00  0.00    +0.000 C 
ATOM     15  C   UNL     1     -46.647 -64.851 -82.646  0.00  0.00    +0.000 C 
ATOM     16  C   UNL     1     -45.406 -65.457 -79.533  0.00  0.00    +0.000 C 
ATOM     17  C   UNL     1     -46.986 -67.145 -82.275  0.00  0.00    +0.000 C 
ATOM     18  C   UNL     1     -48.116 -67.960 -80.401  0.00  0.00    +0.000 C 
ATOM     19  C   UNL     1     -47.743 -68.240 -81.749  0.00  0.00    +0.000 C 
ENDROOT
BRANCH  19  20
ATOM     20  O   UNL     1     -47.566 -69.520 -82.186  0.00  0.00    +0.000 OA
ATOM     21  H   UNL     1     -48.172 -69.734 -82.915  0.00  0.00    +0.000 HD
ENDBRANCH  19  20
BRANCH   5  22
ATOM     22  C   UNL     1     -50.829 -60.056 -78.529  0.00  0.00    +0.000 C 
ATOM     23  C   UNL     1     -51.625 -58.783 -78.666  0.00  0.00    +0.000 C 
BRANCH  22  24
ATOM     24  C   UNL     1     -50.969 -60.732 -77.287  0.00  0.00    +0.000 C 
ATOM     25  C   UNL     1     -51.117 -61.437 -75.931  0.00  0.00    +0.000 C 
BRANCH  25  26
ATOM     26  C   UNL     1     -51.240 -62.083 -74.663  0.00  0.00    +0.000 C 
ATOM     27  C   UNL     1     -50.170 -62.009 -73.692  0.00  0.00    +0.000 C 
ATOM     28  C   UNL     1     -48.888 -61.241 -73.953  0.00  0.00    +0.000 C 
ATOM     29  C   UNL     1     -50.208 -62.705 -72.350  0.00  0.00    +0.000 C 
BRANCH  26  30
ATOM     30  C   UNL     1     -52.425 -62.799 -74.343  0.00  0.00    +0.000 C 
ATOM     31  C   UNL     1     -53.686 -63.574 -73.947  0.00  0.00    +0.000 C 
ENDBRANCH  26  30
ENDBRANCH  25  26
ENDBRANCH  22  24
ENDBRANCH   5  22
TORSDOF 5
ENDMDL
MODEL 7
REMARK VINA RESULT:      -6.4     11.632     15.155
REMARK  Name = 222284_BetaSitosterol.pdbqt.pdb
REMARK  5 active torsions:
REMARK  status: ('A' for Active; 'I' for Inactive)
REMARK    1  A    between atoms: C_5  and  C_22
REMARK    2  A    between atoms: C_19  and  O_20
REMARK    3  A    between atoms: C_22  and  C_24
REMARK    4  A    between atoms: C_25  and  C_26
REMARK    5  A    between atoms: C_26  and  C_30
REMARK                            x       y       z     vdW  Elec       q    Type
REMARK                         _______ _______ _______ _____ _____    ______ ____
ROOT
ATOM      1  C   UNL     1     -60.248 -58.310 -58.090  0.00  0.00    +0.000 C 
ATOM      2  C   UNL     1     -61.282 -57.764 -56.980  0.00  0.00    +0.000 C 
ATOM      3  C   UNL     1     -60.961 -57.775 -55.538  0.00  0.00    +0.000 C 
ATOM      4  C   UNL     1     -59.596 -57.999 -54.937  0.00  0.00    +0.000 C 
ATOM      5  C   UNL     1     -60.336 -57.275 -59.202  0.00  0.00    +0.000 C 
ATOM      6  C   UNL     1     -58.949 -58.343 -57.417  0.00  0.00    +0.000 C 
ATOM      7  C   UNL     1     -59.330 -58.077 -53.409  0.00  0.00    +0.000 C 
ATOM      8  C   UNL     1     -61.958 -56.640 -57.551  0.00  0.00    +0.000 C 
ATOM      9  C   UNL     1     -58.623 -58.224 -55.948  0.00  0.00    +0.000 C 
ATOM     10  C   UNL     1     -61.347 -56.322 -58.889  0.00  0.00    +0.000 C 
ATOM     11  C   UNL     1     -61.935 -57.430 -54.569  0.00  0.00    +0.000 C 
ATOM     12  C   UNL     1     -60.741 -59.700 -58.568  0.00  0.00    +0.000 C 
ATOM     13  C   UNL     1     -60.551 -57.462 -52.482  0.00  0.00    +0.000 C 
ATOM     14  C   UNL     1     -58.148 -57.240 -53.047  0.00  0.00    +0.000 C 
ATOM     15  C   UNL     1     -61.681 -57.291 -53.098  0.00  0.00    +0.000 C 
ATOM     16  C   UNL     1     -59.149 -59.568 -53.001  0.00  0.00    +0.000 C 
ATOM     17  C   UNL     1     -60.153 -56.459 -51.521  0.00  0.00    +0.000 C 
ATOM     18  C   UNL     1     -57.894 -56.131 -52.012  0.00  0.00    +0.000 C 
ATOM     19  C   UNL     1     -58.973 -55.729 -51.171  0.00  0.00    +0.000 C 
ENDROOT
BRANCH  19  20
ATOM     20  O   UNL     1     -58.754 -55.270 -49.905  0.00  0.00    +0.000 OA
ATOM     21  H   UNL     1     -57.904 -54.804 -49.837  0.00  0.00    +0.000 HD
ENDBRANCH  19  20
BRANCH   5  22
ATOM     22  C   UNL     1     -59.488 -57.239 -60.353  0.00  0.00    +0.000 C 
ATOM     23  C   UNL     1     -58.327 -56.284 -60.471  0.00  0.00    +0.000 C 
BRANCH  22  24
ATOM     24  C   UNL     1     -59.670 -58.116 -61.456  0.00  0.00    +0.000 C 
ATOM     25  C   UNL     1     -59.841 -59.056 -62.658  0.00  0.00    +0.000 C 
BRANCH  25  26
ATOM     26  C   UNL     1     -59.993 -59.918 -63.787  0.00  0.00    +0.000 C 
ATOM     27  C   UNL     1     -58.916 -60.078 -64.740  0.00  0.00    +0.000 C 
ATOM     28  C   UNL     1     -57.583 -59.370 -64.588  0.00  0.00    +0.000 C 
ATOM     29  C   UNL     1     -59.020 -60.935 -65.983  0.00  0.00    +0.000 C 
BRANCH  26  30
ATOM     30  C   UNL     1     -61.206 -60.631 -63.977  0.00  0.00    +0.000 C 
ATOM     31  C   UNL     1     -62.543 -61.353 -64.182  0.00  0.00    +0.000 C 
ENDBRANCH  26  30
ENDBRANCH  25  26
ENDBRANCH  22  24
ENDBRANCH   5  22
TORSDOF 5
ENDMDL
MODEL 8
REMARK VINA RESULT:      -6.4     18.347     23.855
REMARK  Name = 222284_BetaSitosterol.pdbqt.pdb
REMARK  5 active torsions:
REMARK  status: ('A' for Active; 'I' for Inactive)
REMARK    1  A    between atoms: C_5  and  C_22
REMARK    2  A    between atoms: C_19  and  O_20
REMARK    3  A    between atoms: C_22  and  C_24
REMARK    4  A    between atoms: C_25  and  C_26
REMARK    5  A    between atoms: C_26  and  C_30
REMARK                            x       y       z     vdW  Elec       q    Type
REMARK                         _______ _______ _______ _____ _____    ______ ____
ROOT
ATOM      1  C   UNL     1     -65.666 -46.961 -30.067  0.00  0.00    +0.000 C 
ATOM      2  C   UNL     1     -66.383 -47.709 -31.302  0.00  0.00    +0.000 C 
ATOM      3  C   UNL     1     -66.138 -47.317 -32.705  0.00  0.00    +0.000 C 
ATOM      4  C   UNL     1     -65.028 -46.420 -33.192  0.00  0.00    +0.000 C 
ATOM      5  C   UNL     1     -65.260 -48.099 -29.144  0.00  0.00    +0.000 C 
ATOM      6  C   UNL     1     -64.533 -46.249 -30.659  0.00  0.00    +0.000 C 
ATOM      7  C   UNL     1     -64.863 -45.977 -34.672  0.00  0.00    +0.000 C 
ATOM      8  C   UNL     1     -66.479 -49.094 -30.956  0.00  0.00    +0.000 C 
ATOM      9  C   UNL     1     -64.227 -45.964 -32.110  0.00  0.00    +0.000 C 
ATOM     10  C   UNL     1     -65.755 -49.332 -29.658  0.00  0.00    +0.000 C 
ATOM     11  C   UNL     1     -66.886 -47.886 -33.765  0.00  0.00    +0.000 C 
ATOM     12  C   UNL     1     -66.708 -46.030 -29.395  0.00  0.00    +0.000 C 
ATOM     13  C   UNL     1     -65.713 -46.900 -35.747  0.00  0.00    +0.000 C 
ATOM     14  C   UNL     1     -63.444 -46.137 -35.104  0.00  0.00    +0.000 C 
ATOM     15  C   UNL     1     -66.635 -47.649 -35.224  0.00  0.00    +0.000 C 
ATOM     16  C   UNL     1     -65.369 -44.513 -34.823  0.00  0.00    +0.000 C 
ATOM     17  C   UNL     1     -64.940 -47.449 -36.837  0.00  0.00    +0.000 C 
ATOM     18  C   UNL     1     -62.755 -46.831 -36.292  0.00  0.00    +0.000 C 
ATOM     19  C   UNL     1     -63.569 -47.517 -37.240  0.00  0.00    +0.000 C 
ENDROOT
BRANCH  19  20
ATOM     20  O   UNL     1     -63.203 -47.614 -38.551  0.00  0.00    +0.000 OA
ATOM     21  H   UNL     1     -62.591 -46.903 -38.804  0.00  0.00    +0.000 HD
ENDBRANCH  19  20
BRANCH   5  22
ATOM     22  C   UNL     1     -64.452 -47.953 -27.973  0.00  0.00    +0.000 C 
ATOM     23  C   UNL     1     -64.922 -47.196 -26.756  0.00  0.00    +0.000 C 
BRANCH  22  24
ATOM     24  C   UNL     1     -63.157 -48.529 -27.870  0.00  0.00    +0.000 C 
ATOM     25  C   UNL     1     -61.755 -49.151 -27.787  0.00  0.00    +0.000 C 
BRANCH  25  26
ATOM     26  C   UNL     1     -60.456 -49.742 -27.724  0.00  0.00    +0.000 C 
ATOM     27  C   UNL     1     -60.126 -50.683 -26.677  0.00  0.00    +0.000 C 
ATOM     28  C   UNL     1     -61.126 -51.105 -25.617  0.00  0.00    +0.000 C 
ATOM     29  C   UNL     1     -58.759 -51.313 -26.519  0.00  0.00    +0.000 C 
BRANCH  26  30
ATOM     30  C   UNL     1     -59.480 -49.411 -28.700  0.00  0.00    +0.000 C 
ATOM     31  C   UNL     1     -58.417 -49.107 -29.763  0.00  0.00    +0.000 C 
ENDBRANCH  26  30
ENDBRANCH  25  26
ENDBRANCH  22  24
ENDBRANCH   5  22
TORSDOF 5
ENDMDL
MODEL 9
REMARK VINA RESULT:      -6.3     32.023     36.991
REMARK  Name = 222284_BetaSitosterol.pdbqt.pdb
REMARK  5 active torsions:
REMARK  status: ('A' for Active; 'I' for Inactive)
REMARK    1  A    between atoms: C_5  and  C_22
REMARK    2  A    between atoms: C_19  and  O_20
REMARK    3  A    between atoms: C_22  and  C_24
REMARK    4  A    between atoms: C_25  and  C_26
REMARK    5  A    between atoms: C_26  and  C_30
REMARK                            x       y       z     vdW  Elec       q    Type
REMARK                         _______ _______ _______ _____ _____    ______ ____
ROOT
ATOM      1  C   UNL     1     -63.251 -52.995 -17.815  0.00  0.00    +0.000 C 
ATOM      2  C   UNL     1     -63.387 -52.266 -19.247  0.00  0.00    +0.000 C 
ATOM      3  C   UNL     1     -62.471 -52.564 -20.367  0.00  0.00    +0.000 C 
ATOM      4  C   UNL     1     -61.520 -53.732 -20.447  0.00  0.00    +0.000 C 
ATOM      5  C   UNL     1     -64.689 -53.318 -17.438  0.00  0.00    +0.000 C 
ATOM      6  C   UNL     1     -62.427 -54.179 -18.066  0.00  0.00    +0.000 C 
ATOM      7  C   UNL     1     -60.523 -53.953 -21.617  0.00  0.00    +0.000 C 
ATOM      8  C   UNL     1     -64.784 -52.087 -19.497  0.00  0.00    +0.000 C 
ATOM      9  C   UNL     1     -61.594 -54.532 -19.274  0.00  0.00    +0.000 C 
ATOM     10  C   UNL     1     -65.573 -52.768 -18.411  0.00  0.00    +0.000 C 
ATOM     11  C   UNL     1     -62.513 -51.810 -21.566  0.00  0.00    +0.000 C 
ATOM     12  C   UNL     1     -62.616 -51.990 -16.819  0.00  0.00    +0.000 C 
ATOM     13  C   UNL     1     -60.875 -53.079 -22.974  0.00  0.00    +0.000 C 
ATOM     14  C   UNL     1     -60.576 -55.371 -22.080  0.00  0.00    +0.000 C 
ATOM     15  C   UNL     1     -61.717 -52.105 -22.801  0.00  0.00    +0.000 C 
ATOM     16  C   UNL     1     -59.098 -53.531 -21.156  0.00  0.00    +0.000 C 
ATOM     17  C   UNL     1     -60.976 -53.844 -24.195  0.00  0.00    +0.000 C 
ATOM     18  C   UNL     1     -60.764 -56.047 -23.448  0.00  0.00    +0.000 C 
ATOM     19  C   UNL     1     -60.954 -55.219 -24.593  0.00  0.00    +0.000 C 
ENDROOT
BRANCH  19  20
ATOM     20  O   UNL     1     -60.529 -55.607 -25.830  0.00  0.00    +0.000 OA
ATOM     21  H   UNL     1     -60.141 -54.865 -26.323  0.00  0.00    +0.000 HD
ENDBRANCH  19  20
BRANCH   5  22
ATOM     22  C   UNL     1     -65.081 -54.106 -16.312  0.00  0.00    +0.000 C 
ATOM     23  C   UNL     1     -65.999 -53.580 -15.238  0.00  0.00    +0.000 C 
BRANCH  22  24
ATOM     24  C   UNL     1     -64.646 -55.448 -16.138  0.00  0.00    +0.000 C 
ATOM     25  C   UNL     1     -64.151 -56.888 -15.941  0.00  0.00    +0.000 C 
BRANCH  25  26
ATOM     26  C   UNL     1     -63.674 -58.223 -15.765  0.00  0.00    +0.000 C 
ATOM     27  C   UNL     1     -62.388 -58.621 -16.295  0.00  0.00    +0.000 C 
ATOM     28  C   UNL     1     -61.481 -57.658 -17.038  0.00  0.00    +0.000 C 
ATOM     29  C   UNL     1     -61.838 -60.026 -16.189  0.00  0.00    +0.000 C 
BRANCH  26  30
ATOM     30  C   UNL     1     -64.461 -59.169 -15.056  0.00  0.00    +0.000 C 
ATOM     31  C   UNL     1     -65.265 -60.219 -14.280  0.00  0.00    +0.000 C 
ENDBRANCH  26  30
ENDBRANCH  25  26
ENDBRANCH  22  24
ENDBRANCH   5  22
TORSDOF 5
ENDMDL
