MODEL 1
REMARK VINA RESULT:      -5.5      0.000      0.000
REMARK  Name = 25023738_BI-D-1870.pdbqt.pdb
REMARK  4 active torsions:
REMARK  status: ('A' for Active; 'I' for Inactive)
REMARK    1  A    between atoms: N_2  and  C_26
REMARK    2  A    between atoms: N_14  and  C_16
REMARK    3  A    between atoms: C_20  and  O_24
REMARK    4  A    between atoms: C_27  and  C_28
REMARK                            x       y       z     vdW  Elec       q    Type
REMARK                         _______ _______ _______ _____ _____    ______ ____
ROOT
ATOM      1  O   UNL     1     -58.505 -48.422 -80.087  0.00  0.00    +0.000 OA
ATOM      2  N   UNL     1     -59.019 -52.001 -80.216  0.00  0.00    +0.000 N 
ATOM      3  N   UNL     1     -60.496 -49.619 -79.922  0.00  0.00    +0.000 N 
ATOM      4  N   UNL     1     -61.032 -53.271 -80.051  0.00  0.00    +0.000 NA
ATOM      5  N   UNL     1     -63.121 -52.250 -79.757  0.00  0.00    +0.000 NA
ATOM      6  C   UNL     1     -58.341 -50.801 -80.230  0.00  0.00    +0.000 C 
ATOM      7  C   UNL     1     -60.419 -52.065 -80.058  0.00  0.00    +0.000 A 
ATOM      8  C   UNL     1     -59.098 -49.505 -80.075  0.00  0.00    +0.000 C 
ATOM      9  C   UNL     1     -61.128 -50.893 -79.915  0.00  0.00    +0.000 A 
ATOM     10  C   UNL     1     -56.826 -50.783 -80.402  0.00  0.00    +0.000 C 
ATOM     11  C   UNL     1     -61.393 -48.480 -79.759  0.00  0.00    +0.000 C 
ATOM     12  C   UNL     1     -62.488 -51.062 -79.768  0.00  0.00    +0.000 A 
ATOM     13  C   UNL     1     -62.363 -53.335 -79.901  0.00  0.00    +0.000 A 
ATOM     14  N   UNL     1     -63.029 -54.553 -79.889  0.00  0.00    +0.000 N 
ATOM     15  H   UNL     1     -64.025 -54.421 -79.768  0.00  0.00    +0.000 HD
ENDROOT
BRANCH  14  16
ATOM     16  C   UNL     1     -62.562 -55.866 -80.014  0.00  0.00    +0.000 A 
ATOM     17  C   UNL     1     -63.024 -56.843 -79.122  0.00  0.00    +0.000 A 
ATOM     18  C   UNL     1     -62.582 -58.162 -79.216  0.00  0.00    +0.000 A 
ATOM     19  F   UNL     1     -63.047 -59.068 -78.343  0.00  0.00    +0.000 F 
ATOM     20  C   UNL     1     -61.671 -58.531 -80.197  0.00  0.00    +0.000 A 
ATOM     21  C   UNL     1     -61.208 -57.569 -81.084  0.00  0.00    +0.000 A 
ATOM     22  F   UNL     1     -60.330 -57.914 -82.037  0.00  0.00    +0.000 F 
ATOM     23  C   UNL     1     -61.646 -56.251 -80.997  0.00  0.00    +0.000 A 
BRANCH  20  24
ATOM     24  O   UNL     1     -61.241 -59.826 -80.283  0.00  0.00    +0.000 OA
ATOM     25  H   UNL     1     -60.302 -59.849 -80.019  0.00  0.00    +0.000 HD
ENDBRANCH  20  24
ENDBRANCH  14  16
BRANCH   2  26
ATOM     26  C   UNL     1     -58.290 -53.258 -80.363  0.00  0.00    +0.000 C 
ATOM     27  C   UNL     1     -57.523 -54.578 -80.513  0.00  0.00    +0.000 C 
BRANCH  27  28
ATOM     28  C   UNL     1     -56.819 -55.794 -80.655  0.00  0.00    +0.000 C 
ATOM     29  C   UNL     1     -55.610 -56.059 -79.811  0.00  0.00    +0.000 C 
ATOM     30  C   UNL     1     -57.252 -56.791 -81.685  0.00  0.00    +0.000 C 
ENDBRANCH  27  28
ENDBRANCH   2  26
TORSDOF 4
ENDMDL
MODEL 2
REMARK VINA RESULT:      -5.3     25.129     26.876
REMARK  Name = 25023738_BI-D-1870.pdbqt.pdb
REMARK  4 active torsions:
REMARK  status: ('A' for Active; 'I' for Inactive)
REMARK    1  A    between atoms: N_2  and  C_26
REMARK    2  A    between atoms: N_14  and  C_16
REMARK    3  A    between atoms: C_20  and  O_24
REMARK    4  A    between atoms: C_27  and  C_28
REMARK                            x       y       z     vdW  Elec       q    Type
REMARK                         _______ _______ _______ _____ _____    ______ ____
ROOT
ATOM      1  O   UNL     1     -65.042 -45.528 -49.670  0.00  0.00    +0.000 OA
ATOM      2  N   UNL     1     -64.940 -46.194 -53.225  0.00  0.00    +0.000 N 
ATOM      3  N   UNL     1     -63.622 -44.632 -51.285  0.00  0.00    +0.000 N 
ATOM      4  N   UNL     1     -63.510 -45.304 -54.914  0.00  0.00    +0.000 NA
ATOM      5  N   UNL     1     -61.837 -43.738 -54.423  0.00  0.00    +0.000 NA
ATOM      6  C   UNL     1     -65.359 -46.281 -51.915  0.00  0.00    +0.000 C 
ATOM      7  C   UNL     1     -63.879 -45.350 -53.613  0.00  0.00    +0.000 A 
ATOM      8  C   UNL     1     -64.678 -45.460 -50.848  0.00  0.00    +0.000 C 
ATOM      9  C   UNL     1     -63.245 -44.592 -52.655  0.00  0.00    +0.000 A 
ATOM     10  C   UNL     1     -66.512 -47.207 -51.543  0.00  0.00    +0.000 C 
ATOM     11  C   UNL     1     -62.847 -43.767 -50.401  0.00  0.00    +0.000 C 
ATOM     12  C   UNL     1     -62.223 -43.802 -53.135  0.00  0.00    +0.000 A 
ATOM     13  C   UNL     1     -62.501 -44.502 -55.287  0.00  0.00    +0.000 A 
ATOM     14  N   UNL     1     -62.092 -44.428 -56.612  0.00  0.00    +0.000 N 
ATOM     15  H   UNL     1     -61.323 -43.778 -56.717  0.00  0.00    +0.000 HD
ENDROOT
BRANCH  14  16
ATOM     16  C   UNL     1     -62.553 -45.077 -57.762  0.00  0.00    +0.000 A 
ATOM     17  C   UNL     1     -61.682 -45.921 -58.465  0.00  0.00    +0.000 A 
ATOM     18  C   UNL     1     -62.105 -46.586 -59.615  0.00  0.00    +0.000 A 
ATOM     19  F   UNL     1     -61.241 -47.384 -60.259  0.00  0.00    +0.000 F 
ATOM     20  C   UNL     1     -63.400 -46.421 -60.087  0.00  0.00    +0.000 A 
ATOM     21  C   UNL     1     -64.268 -45.587 -59.397  0.00  0.00    +0.000 A 
ATOM     22  F   UNL     1     -65.523 -45.421 -59.842  0.00  0.00    +0.000 F 
ATOM     23  C   UNL     1     -63.854 -44.921 -58.247  0.00  0.00    +0.000 A 
BRANCH  20  24
ATOM     24  O   UNL     1     -63.808 -47.075 -61.215  0.00  0.00    +0.000 OA
ATOM     25  H   UNL     1     -64.671 -46.705 -61.483  0.00  0.00    +0.000 HD
ENDBRANCH  20  24
ENDBRANCH  14  16
BRANCH   2  26
ATOM     26  C   UNL     1     -65.598 -46.985 -54.261  0.00  0.00    +0.000 C 
ATOM     27  C   UNL     1     -66.289 -47.820 -55.346  0.00  0.00    +0.000 C 
BRANCH  27  28
ATOM     28  C   UNL     1     -66.925 -48.585 -56.349  0.00  0.00    +0.000 C 
ATOM     29  C   UNL     1     -67.618 -49.863 -55.985  0.00  0.00    +0.000 C 
ATOM     30  C   UNL     1     -66.861 -48.143 -57.778  0.00  0.00    +0.000 C 
ENDBRANCH  27  28
ENDBRANCH   2  26
TORSDOF 4
ENDMDL
MODEL 3
REMARK VINA RESULT:      -5.3     23.896     24.949
REMARK  Name = 25023738_BI-D-1870.pdbqt.pdb
REMARK  4 active torsions:
REMARK  status: ('A' for Active; 'I' for Inactive)
REMARK    1  A    between atoms: N_2  and  C_26
REMARK    2  A    between atoms: N_14  and  C_16
REMARK    3  A    between atoms: C_20  and  O_24
REMARK    4  A    between atoms: C_27  and  C_28
REMARK                            x       y       z     vdW  Elec       q    Type
REMARK                         _______ _______ _______ _____ _____    ______ ____
ROOT
ATOM      1  O   UNL     1     -54.851 -57.881 -53.945  0.00  0.00    +0.000 OA
ATOM      2  N   UNL     1     -57.929 -57.191 -55.718  0.00  0.00    +0.000 N 
ATOM      3  N   UNL     1     -57.030 -57.827 -53.123  0.00  0.00    +0.000 N 
ATOM      4  N   UNL     1     -60.177 -57.124 -54.924  0.00  0.00    +0.000 NA
ATOM      5  N   UNL     1     -60.712 -57.538 -52.679  0.00  0.00    +0.000 NA
ATOM      6  C   UNL     1     -56.578 -57.374 -55.516  0.00  0.00    +0.000 C 
ATOM      7  C   UNL     1     -58.862 -57.314 -54.668  0.00  0.00    +0.000 A 
ATOM      8  C   UNL     1     -56.059 -57.715 -54.141  0.00  0.00    +0.000 C 
ATOM      9  C   UNL     1     -58.409 -57.625 -53.405  0.00  0.00    +0.000 A 
ATOM     10  C   UNL     1     -55.607 -57.231 -56.683  0.00  0.00    +0.000 C 
ATOM     11  C   UNL     1     -56.720 -58.149 -51.734  0.00  0.00    +0.000 C 
ATOM     12  C   UNL     1     -59.398 -57.722 -52.451  0.00  0.00    +0.000 A 
ATOM     13  C   UNL     1     -61.068 -57.240 -53.927  0.00  0.00    +0.000 A 
ATOM     14  N   UNL     1     -62.425 -57.052 -54.149  0.00  0.00    +0.000 N 
ATOM     15  H   UNL     1     -62.953 -57.177 -53.294  0.00  0.00    +0.000 HD
ENDROOT
BRANCH  14  16
ATOM     16  C   UNL     1     -63.140 -56.733 -55.309  0.00  0.00    +0.000 A 
ATOM     17  C   UNL     1     -64.499 -56.406 -55.206  0.00  0.00    +0.000 A 
ATOM     18  C   UNL     1     -65.243 -56.082 -56.339  0.00  0.00    +0.000 A 
ATOM     19  F   UNL     1     -66.541 -55.775 -56.199  0.00  0.00    +0.000 F 
ATOM     20  C   UNL     1     -64.649 -56.079 -57.594  0.00  0.00    +0.000 A 
ATOM     21  C   UNL     1     -63.304 -56.403 -57.705  0.00  0.00    +0.000 A 
ATOM     22  F   UNL     1     -62.719 -56.402 -58.912  0.00  0.00    +0.000 F 
ATOM     23  C   UNL     1     -62.554 -56.726 -56.578  0.00  0.00    +0.000 A 
BRANCH  20  24
ATOM     24  O   UNL     1     -65.385 -55.761 -58.701  0.00  0.00    +0.000 OA
ATOM     25  H   UNL     1     -64.843 -55.178 -59.266  0.00  0.00    +0.000 HD
ENDBRANCH  20  24
ENDBRANCH  14  16
BRANCH   2  26
ATOM     26  C   UNL     1     -58.436 -56.863 -57.048  0.00  0.00    +0.000 C 
ATOM     27  C   UNL     1     -58.966 -56.523 -58.446  0.00  0.00    +0.000 C 
BRANCH  27  28
ATOM     28  C   UNL     1     -59.457 -56.205 -59.732  0.00  0.00    +0.000 C 
ATOM     29  C   UNL     1     -59.596 -54.771 -60.144  0.00  0.00    +0.000 C 
ATOM     30  C   UNL     1     -59.886 -57.300 -60.658  0.00  0.00    +0.000 C 
ENDBRANCH  27  28
ENDBRANCH   2  26
TORSDOF 4
ENDMDL
MODEL 4
REMARK VINA RESULT:      -5.2     47.042     48.659
REMARK  Name = 25023738_BI-D-1870.pdbqt.pdb
REMARK  4 active torsions:
REMARK  status: ('A' for Active; 'I' for Inactive)
REMARK    1  A    between atoms: N_2  and  C_26
REMARK    2  A    between atoms: N_14  and  C_16
REMARK    3  A    between atoms: C_20  and  O_24
REMARK    4  A    between atoms: C_27  and  C_28
REMARK                            x       y       z     vdW  Elec       q    Type
REMARK                         _______ _______ _______ _____ _____    ______ ____
ROOT
ATOM      1  O   UNL     1     -68.791 -58.129 -38.206  0.00  0.00    +0.000 OA
ATOM      2  N   UNL     1     -70.319 -56.328 -35.465  0.00  0.00    +0.000 N 
ATOM      3  N   UNL     1     -68.312 -58.251 -35.929  0.00  0.00    +0.000 N 
ATOM      4  N   UNL     1     -69.865 -56.418 -33.125  0.00  0.00    +0.000 NA
ATOM      5  N   UNL     1     -68.213 -57.823 -32.236  0.00  0.00    +0.000 NA
ATOM      6  C   UNL     1     -70.082 -56.731 -36.762  0.00  0.00    +0.000 C 
ATOM      7  C   UNL     1     -69.590 -56.850 -34.377  0.00  0.00    +0.000 A 
ATOM      8  C   UNL     1     -69.015 -57.759 -37.049  0.00  0.00    +0.000 C 
ATOM      9  C   UNL     1     -68.612 -57.789 -34.618  0.00  0.00    +0.000 A 
ATOM     10  C   UNL     1     -70.897 -56.139 -37.906  0.00  0.00    +0.000 C 
ATOM     11  C   UNL     1     -67.248 -59.247 -36.009  0.00  0.00    +0.000 C 
ATOM     12  C   UNL     1     -67.958 -58.236 -33.491  0.00  0.00    +0.000 A 
ATOM     13  C   UNL     1     -69.174 -56.912 -32.088  0.00  0.00    +0.000 A 
ATOM     14  N   UNL     1     -69.427 -56.494 -30.788  0.00  0.00    +0.000 N 
ATOM     15  H   UNL     1     -68.817 -56.965 -30.131  0.00  0.00    +0.000 HD
ENDROOT
BRANCH  14  16
ATOM     16  C   UNL     1     -70.342 -55.570 -30.273  0.00  0.00    +0.000 A 
ATOM     17  C   UNL     1     -71.410 -56.030 -29.490  0.00  0.00    +0.000 A 
ATOM     18  C   UNL     1     -72.341 -55.140 -28.959  0.00  0.00    +0.000 A 
ATOM     19  F   UNL     1     -73.348 -55.619 -28.215  0.00  0.00    +0.000 F 
ATOM     20  C   UNL     1     -72.229 -53.777 -29.199  0.00  0.00    +0.000 A 
ATOM     21  C   UNL     1     -71.176 -53.314 -29.975  0.00  0.00    +0.000 A 
ATOM     22  F   UNL     1     -71.056 -51.999 -30.213  0.00  0.00    +0.000 F 
ATOM     23  C   UNL     1     -70.240 -54.197 -30.507  0.00  0.00    +0.000 A 
BRANCH  20  24
ATOM     24  O   UNL     1     -73.147 -52.909 -28.677  0.00  0.00    +0.000 OA
ATOM     25  H   UNL     1     -73.943 -53.421 -28.437  0.00  0.00    +0.000 HD
ENDBRANCH  20  24
ENDBRANCH  14  16
BRANCH   2  26
ATOM     26  C   UNL     1     -71.352 -55.335 -35.182  0.00  0.00    +0.000 C 
ATOM     27  C   UNL     1     -72.434 -54.289 -34.886  0.00  0.00    +0.000 C 
BRANCH  27  28
ATOM     28  C   UNL     1     -73.433 -53.329 -34.612  0.00  0.00    +0.000 C 
ATOM     29  C   UNL     1     -74.652 -53.253 -35.480  0.00  0.00    +0.000 C 
ATOM     30  C   UNL     1     -73.247 -52.358 -33.488  0.00  0.00    +0.000 C 
ENDBRANCH  27  28
ENDBRANCH   2  26
TORSDOF 4
ENDMDL
MODEL 5
REMARK VINA RESULT:      -5.1     24.843     26.290
REMARK  Name = 25023738_BI-D-1870.pdbqt.pdb
REMARK  4 active torsions:
REMARK  status: ('A' for Active; 'I' for Inactive)
REMARK    1  A    between atoms: N_2  and  C_26
REMARK    2  A    between atoms: N_14  and  C_16
REMARK    3  A    between atoms: C_20  and  O_24
REMARK    4  A    between atoms: C_27  and  C_28
REMARK                            x       y       z     vdW  Elec       q    Type
REMARK                         _______ _______ _______ _____ _____    ______ ____
ROOT
ATOM      1  O   UNL     1     -61.626 -41.149 -57.566  0.00  0.00    +0.000 OA
ATOM      2  N   UNL     1     -63.327 -44.289 -56.983  0.00  0.00    +0.000 N 
ATOM      3  N   UNL     1     -61.897 -42.316 -55.568  0.00  0.00    +0.000 N 
ATOM      4  N   UNL     1     -63.631 -45.520 -54.963  0.00  0.00    +0.000 NA
ATOM      5  N   UNL     1     -62.779 -44.768 -52.913  0.00  0.00    +0.000 NA
ATOM      6  C   UNL     1     -62.839 -43.204 -57.679  0.00  0.00    +0.000 C 
ATOM      7  C   UNL     1     -63.129 -44.434 -55.595  0.00  0.00    +0.000 A 
ATOM      8  C   UNL     1     -62.068 -42.127 -56.955  0.00  0.00    +0.000 C 
ATOM      9  C   UNL     1     -62.428 -43.462 -54.916  0.00  0.00    +0.000 A 
ATOM     10  C   UNL     1     -63.078 -43.091 -59.181  0.00  0.00    +0.000 C 
ATOM     11  C   UNL     1     -61.182 -41.384 -54.702  0.00  0.00    +0.000 C 
ATOM     12  C   UNL     1     -62.290 -43.696 -53.565  0.00  0.00    +0.000 A 
ATOM     13  C   UNL     1     -63.445 -45.661 -53.642  0.00  0.00    +0.000 A 
ATOM     14  N   UNL     1     -63.944 -46.761 -52.958  0.00  0.00    +0.000 N 
ATOM     15  H   UNL     1     -63.714 -46.710 -51.973  0.00  0.00    +0.000 HD
ENDROOT
BRANCH  14  16
ATOM     16  C   UNL     1     -64.678 -47.869 -53.394  0.00  0.00    +0.000 A 
ATOM     17  C   UNL     1     -64.025 -49.098 -53.560  0.00  0.00    +0.000 A 
ATOM     18  C   UNL     1     -64.724 -50.225 -53.993  0.00  0.00    +0.000 A 
ATOM     19  F   UNL     1     -64.063 -51.382 -54.140  0.00  0.00    +0.000 F 
ATOM     20  C   UNL     1     -66.083 -50.148 -54.268  0.00  0.00    +0.000 A 
ATOM     21  C   UNL     1     -66.736 -48.934 -54.106  0.00  0.00    +0.000 A 
ATOM     22  F   UNL     1     -68.048 -48.848 -54.367  0.00  0.00    +0.000 F 
ATOM     23  C   UNL     1     -66.046 -47.806 -53.673  0.00  0.00    +0.000 A 
BRANCH  20  24
ATOM     24  O   UNL     1     -66.761 -51.256 -54.692  0.00  0.00    +0.000 OA
ATOM     25  H   UNL     1     -67.713 -51.039 -54.707  0.00  0.00    +0.000 HD
ENDBRANCH  20  24
ENDBRANCH  14  16
BRANCH   2  26
ATOM     26  C   UNL     1     -64.072 -45.334 -57.680  0.00  0.00    +0.000 C 
ATOM     27  C   UNL     1     -64.858 -46.432 -58.408  0.00  0.00    +0.000 C 
BRANCH  27  28
ATOM     28  C   UNL     1     -65.578 -47.442 -59.083  0.00  0.00    +0.000 C 
ATOM     29  C   UNL     1     -66.793 -48.044 -58.446  0.00  0.00    +0.000 C 
ATOM     30  C   UNL     1     -65.095 -47.945 -60.408  0.00  0.00    +0.000 C 
ENDBRANCH  27  28
ENDBRANCH   2  26
TORSDOF 4
ENDMDL
MODEL 6
REMARK VINA RESULT:      -5.0      9.406     11.700
REMARK  Name = 25023738_BI-D-1870.pdbqt.pdb
REMARK  4 active torsions:
REMARK  status: ('A' for Active; 'I' for Inactive)
REMARK    1  A    between atoms: N_2  and  C_26
REMARK    2  A    between atoms: N_14  and  C_16
REMARK    3  A    between atoms: C_20  and  O_24
REMARK    4  A    between atoms: C_27  and  C_28
REMARK                            x       y       z     vdW  Elec       q    Type
REMARK                         _______ _______ _______ _____ _____    ______ ____
ROOT
ATOM      1  O   UNL     1     -71.355 -57.051 -78.156  0.00  0.00    +0.000 OA
ATOM      2  N   UNL     1     -68.733 -58.771 -76.352  0.00  0.00    +0.000 N 
ATOM      3  N   UNL     1     -71.156 -57.418 -75.864  0.00  0.00    +0.000 N 
ATOM      4  N   UNL     1     -68.485 -59.171 -74.013  0.00  0.00    +0.000 NA
ATOM      5  N   UNL     1     -70.067 -58.424 -72.453  0.00  0.00    +0.000 NA
ATOM      6  C   UNL     1     -69.423 -58.252 -77.426  0.00  0.00    +0.000 C 
ATOM      7  C   UNL     1     -69.204 -58.641 -75.029  0.00  0.00    +0.000 A 
ATOM      8  C   UNL     1     -70.725 -57.521 -77.204  0.00  0.00    +0.000 C 
ATOM      9  C   UNL     1     -70.390 -57.978 -74.806  0.00  0.00    +0.000 A 
ATOM     10  C   UNL     1     -68.872 -58.415 -78.838  0.00  0.00    +0.000 C 
ATOM     11  C   UNL     1     -72.387 -56.749 -75.455  0.00  0.00    +0.000 C 
ATOM     12  C   UNL     1     -70.764 -57.906 -73.481  0.00  0.00    +0.000 A 
ATOM     13  C   UNL     1     -68.931 -59.050 -72.754  0.00  0.00    +0.000 A 
ATOM     14  N   UNL     1     -68.222 -59.580 -71.684  0.00  0.00    +0.000 N 
ATOM     15  H   UNL     1     -68.697 -59.400 -70.809  0.00  0.00    +0.000 HD
ENDROOT
BRANCH  14  16
ATOM     16  C   UNL     1     -67.016 -60.288 -71.631  0.00  0.00    +0.000 A 
ATOM     17  C   UNL     1     -66.618 -60.868 -70.419  0.00  0.00    +0.000 A 
ATOM     18  C   UNL     1     -65.424 -61.582 -70.328  0.00  0.00    +0.000 A 
ATOM     19  F   UNL     1     -65.078 -62.122 -69.150  0.00  0.00    +0.000 F 
ATOM     20  C   UNL     1     -64.605 -61.730 -71.439  0.00  0.00    +0.000 A 
ATOM     21  C   UNL     1     -64.992 -61.157 -72.643  0.00  0.00    +0.000 A 
ATOM     22  F   UNL     1     -64.210 -61.294 -73.724  0.00  0.00    +0.000 F 
ATOM     23  C   UNL     1     -66.183 -60.444 -72.742  0.00  0.00    +0.000 A 
BRANCH  20  24
ATOM     24  O   UNL     1     -63.436 -62.430 -71.342  0.00  0.00    +0.000 OA
ATOM     25  H   UNL     1     -62.697 -61.795 -71.420  0.00  0.00    +0.000 HD
ENDBRANCH  20  24
ENDBRANCH  14  16
BRANCH   2  26
ATOM     26  C   UNL     1     -67.471 -59.477 -76.561  0.00  0.00    +0.000 C 
ATOM     27  C   UNL     1     -66.145 -60.215 -76.778  0.00  0.00    +0.000 C 
BRANCH  27  28
ATOM     28  C   UNL     1     -64.925 -60.899 -76.980  0.00  0.00    +0.000 C 
ATOM     29  C   UNL     1     -63.632 -60.145 -76.943  0.00  0.00    +0.000 C 
ATOM     30  C   UNL     1     -64.934 -62.366 -77.283  0.00  0.00    +0.000 C 
ENDBRANCH  27  28
ENDBRANCH   2  26
TORSDOF 4
ENDMDL
MODEL 7
REMARK VINA RESULT:      -5.0     16.069     18.093
REMARK  Name = 25023738_BI-D-1870.pdbqt.pdb
REMARK  4 active torsions:
REMARK  status: ('A' for Active; 'I' for Inactive)
REMARK    1  A    between atoms: N_2  and  C_26
REMARK    2  A    between atoms: N_14  and  C_16
REMARK    3  A    between atoms: C_20  and  O_24
REMARK    4  A    between atoms: C_27  and  C_28
REMARK                            x       y       z     vdW  Elec       q    Type
REMARK                         _______ _______ _______ _____ _____    ______ ____
ROOT
ATOM      1  O   UNL     1     -59.154 -63.299 -65.322  0.00  0.00    +0.000 OA
ATOM      2  N   UNL     1     -57.224 -60.251 -65.599  0.00  0.00    +0.000 N 
ATOM      3  N   UNL     1     -58.296 -61.953 -63.625  0.00  0.00    +0.000 N 
ATOM      4  N   UNL     1     -56.326 -58.841 -63.897  0.00  0.00    +0.000 NA
ATOM      5  N   UNL     1     -56.617 -59.309 -61.619  0.00  0.00    +0.000 NA
ATOM      6  C   UNL     1     -57.930 -61.364 -66.003  0.00  0.00    +0.000 C 
ATOM      7  C   UNL     1     -57.028 -59.947 -64.236  0.00  0.00    +0.000 A 
ATOM      8  C   UNL     1     -58.519 -62.298 -64.975  0.00  0.00    +0.000 C 
ATOM      9  C   UNL     1     -57.558 -60.787 -63.282  0.00  0.00    +0.000 A 
ATOM     10  C   UNL     1     -58.116 -61.650 -67.489  0.00  0.00    +0.000 C 
ATOM     11  C   UNL     1     -58.787 -62.733 -62.494  0.00  0.00    +0.000 C 
ATOM     12  C   UNL     1     -57.311 -60.403 -61.982  0.00  0.00    +0.000 A 
ATOM     13  C   UNL     1     -56.138 -58.549 -62.602  0.00  0.00    +0.000 A 
ATOM     14  N   UNL     1     -55.424 -57.424 -62.213  0.00  0.00    +0.000 N 
ATOM     15  H   UNL     1     -55.377 -57.354 -61.204  0.00  0.00    +0.000 HD
ENDROOT
BRANCH  14  16
ATOM     16  C   UNL     1     -54.789 -56.425 -62.960  0.00  0.00    +0.000 A 
ATOM     17  C   UNL     1     -54.798 -55.107 -62.484  0.00  0.00    +0.000 A 
ATOM     18  C   UNL     1     -54.176 -54.085 -63.200  0.00  0.00    +0.000 A 
ATOM     19  F   UNL     1     -54.206 -52.837 -62.710  0.00  0.00    +0.000 F 
ATOM     20  C   UNL     1     -53.537 -54.356 -64.402  0.00  0.00    +0.000 A 
ATOM     21  C   UNL     1     -53.525 -55.658 -64.881  0.00  0.00    +0.000 A 
ATOM     22  F   UNL     1     -52.910 -55.933 -66.041  0.00  0.00    +0.000 F 
ATOM     23  C   UNL     1     -54.143 -56.684 -64.171  0.00  0.00    +0.000 A 
BRANCH  20  24
ATOM     24  O   UNL     1     -52.930 -53.349 -65.099  0.00  0.00    +0.000 OA
ATOM     25  H   UNL     1     -53.609 -52.682 -65.317  0.00  0.00    +0.000 HD
ENDBRANCH  20  24
ENDBRANCH  14  16
BRANCH   2  26
ATOM     26  C   UNL     1     -56.653 -59.343 -66.591  0.00  0.00    +0.000 C 
ATOM     27  C   UNL     1     -56.057 -58.385 -67.629  0.00  0.00    +0.000 C 
BRANCH  27  28
ATOM     28  C   UNL     1     -55.505 -57.507 -68.588  0.00  0.00    +0.000 C 
ATOM     29  C   UNL     1     -55.267 -56.070 -68.234  0.00  0.00    +0.000 C 
ATOM     30  C   UNL     1     -55.207 -58.002 -69.969  0.00  0.00    +0.000 C 
ENDBRANCH  27  28
ENDBRANCH   2  26
TORSDOF 4
ENDMDL
MODEL 8
REMARK VINA RESULT:      -4.9      1.541      2.370
REMARK  Name = 25023738_BI-D-1870.pdbqt.pdb
REMARK  4 active torsions:
REMARK  status: ('A' for Active; 'I' for Inactive)
REMARK    1  A    between atoms: N_2  and  C_26
REMARK    2  A    between atoms: N_14  and  C_16
REMARK    3  A    between atoms: C_20  and  O_24
REMARK    4  A    between atoms: C_27  and  C_28
REMARK                            x       y       z     vdW  Elec       q    Type
REMARK                         _______ _______ _______ _____ _____    ______ ____
ROOT
ATOM      1  O   UNL     1     -56.983 -48.147 -78.093  0.00  0.00    +0.000 OA
ATOM      2  N   UNL     1     -57.980 -51.456 -79.162  0.00  0.00    +0.000 N 
ATOM      3  N   UNL     1     -59.124 -48.967 -78.501  0.00  0.00    +0.000 N 
ATOM      4  N   UNL     1     -60.153 -52.342 -79.592  0.00  0.00    +0.000 NA
ATOM      5  N   UNL     1     -62.090 -51.045 -79.349  0.00  0.00    +0.000 NA
ATOM      6  C   UNL     1     -57.144 -50.426 -78.789  0.00  0.00    +0.000 C 
ATOM      7  C   UNL     1     -59.380 -51.296 -79.219  0.00  0.00    +0.000 A 
ATOM      8  C   UNL     1     -57.720 -49.079 -78.428  0.00  0.00    +0.000 C 
ATOM      9  C   UNL     1     -59.926 -50.074 -78.894  0.00  0.00    +0.000 A 
ATOM     10  C   UNL     1     -55.636 -50.648 -78.741  0.00  0.00    +0.000 C 
ATOM     11  C   UNL     1     -59.861 -47.746 -78.191  0.00  0.00    +0.000 C 
ATOM     12  C   UNL     1     -61.300 -50.020 -78.981  0.00  0.00    +0.000 A 
ATOM     13  C   UNL     1     -61.485 -52.193 -79.648  0.00  0.00    +0.000 A 
ATOM     14  N   UNL     1     -62.312 -53.242 -80.026  0.00  0.00    +0.000 N 
ATOM     15  H   UNL     1     -63.284 -52.959 -80.014  0.00  0.00    +0.000 HD
ENDROOT
BRANCH  14  16
ATOM     16  C   UNL     1     -62.026 -54.558 -80.403  0.00  0.00    +0.000 A 
ATOM     17  C   UNL     1     -61.034 -54.794 -81.364  0.00  0.00    +0.000 A 
ATOM     18  C   UNL     1     -60.722 -56.092 -81.764  0.00  0.00    +0.000 A 
ATOM     19  F   UNL     1     -59.766 -56.276 -82.687  0.00  0.00    +0.000 F 
ATOM     20  C   UNL     1     -61.391 -57.178 -81.216  0.00  0.00    +0.000 A 
ATOM     21  C   UNL     1     -62.375 -56.953 -80.264  0.00  0.00    +0.000 A 
ATOM     22  F   UNL     1     -63.027 -57.994 -79.726  0.00  0.00    +0.000 F 
ATOM     23  C   UNL     1     -62.691 -55.660 -79.858  0.00  0.00    +0.000 A 
BRANCH  20  24
ATOM     24  O   UNL     1     -61.079 -58.448 -81.613  0.00  0.00    +0.000 OA
ATOM     25  H   UNL     1     -61.016 -59.007 -80.815  0.00  0.00    +0.000 HD
ENDBRANCH  20  24
ENDBRANCH  14  16
BRANCH   2  26
ATOM     26  C   UNL     1     -57.427 -52.762 -79.511  0.00  0.00    +0.000 C 
ATOM     27  C   UNL     1     -56.846 -54.132 -79.881  0.00  0.00    +0.000 C 
BRANCH  27  28
ATOM     28  C   UNL     1     -56.311 -55.396 -80.217  0.00  0.00    +0.000 C 
ATOM     29  C   UNL     1     -56.642 -56.018 -81.539  0.00  0.00    +0.000 C 
ATOM     30  C   UNL     1     -55.458 -56.131 -79.231  0.00  0.00    +0.000 C 
ENDBRANCH  27  28
ENDBRANCH   2  26
TORSDOF 4
ENDMDL
MODEL 9
REMARK VINA RESULT:      -4.9     12.718     15.930
REMARK  Name = 25023738_BI-D-1870.pdbqt.pdb
REMARK  4 active torsions:
REMARK  status: ('A' for Active; 'I' for Inactive)
REMARK    1  A    between atoms: N_2  and  C_26
REMARK    2  A    between atoms: N_14  and  C_16
REMARK    3  A    between atoms: C_20  and  O_24
REMARK    4  A    between atoms: C_27  and  C_28
REMARK                            x       y       z     vdW  Elec       q    Type
REMARK                         _______ _______ _______ _____ _____    ______ ____
ROOT
ATOM      1  O   UNL     1     -72.511 -59.086 -65.577  0.00  0.00    +0.000 OA
ATOM      2  N   UNL     1     -70.298 -59.746 -68.361  0.00  0.00    +0.000 N 
ATOM      3  N   UNL     1     -70.307 -59.839 -65.545  0.00  0.00    +0.000 N 
ATOM      4  N   UNL     1     -68.040 -60.516 -68.381  0.00  0.00    +0.000 NA
ATOM      5  N   UNL     1     -66.872 -60.980 -66.402  0.00  0.00    +0.000 NA
ATOM      6  C   UNL     1     -71.446 -59.377 -67.695  0.00  0.00    +0.000 C 
ATOM      7  C   UNL     1     -69.139 -60.164 -67.675  0.00  0.00    +0.000 A 
ATOM      8  C   UNL     1     -71.489 -59.413 -66.187  0.00  0.00    +0.000 C 
ATOM      9  C   UNL     1     -69.158 -60.204 -66.298  0.00  0.00    +0.000 A 
ATOM     10  C   UNL     1     -72.674 -58.931 -68.481  0.00  0.00    +0.000 C 
ATOM     11  C   UNL     1     -70.158 -59.939 -64.097  0.00  0.00    +0.000 C 
ATOM     12  C   UNL     1     -67.979 -60.626 -65.723  0.00  0.00    +0.000 A 
ATOM     13  C   UNL     1     -66.936 -60.914 -67.730  0.00  0.00    +0.000 A 
ATOM     14  N   UNL     1     -65.788 -61.282 -68.419  0.00  0.00    +0.000 N 
ATOM     15  H   UNL     1     -65.053 -61.554 -67.778  0.00  0.00    +0.000 HD
ENDROOT
BRANCH  14  16
ATOM     16  C   UNL     1     -65.505 -61.335 -69.788  0.00  0.00    +0.000 A 
ATOM     17  C   UNL     1     -66.091 -60.394 -70.644  0.00  0.00    +0.000 A 
ATOM     18  C   UNL     1     -65.832 -60.415 -72.013  0.00  0.00    +0.000 A 
ATOM     19  F   UNL     1     -66.413 -59.497 -72.799  0.00  0.00    +0.000 F 
ATOM     20  C   UNL     1     -64.986 -61.373 -72.555  0.00  0.00    +0.000 A 
ATOM     21  C   UNL     1     -64.402 -62.310 -71.714  0.00  0.00    +0.000 A 
ATOM     22  F   UNL     1     -63.582 -63.240 -72.225  0.00  0.00    +0.000 F 
ATOM     23  C   UNL     1     -64.655 -62.294 -70.345  0.00  0.00    +0.000 A 
BRANCH  20  24
ATOM     24  O   UNL     1     -64.737 -61.389 -73.899  0.00  0.00    +0.000 OA
ATOM     25  H   UNL     1     -63.894 -61.860 -74.044  0.00  0.00    +0.000 HD
ENDBRANCH  20  24
ENDBRANCH  14  16
BRANCH   2  26
ATOM     26  C   UNL     1     -70.251 -59.710 -69.821  0.00  0.00    +0.000 C 
ATOM     27  C   UNL     1     -70.201 -59.678 -71.353  0.00  0.00    +0.000 C 
BRANCH  27  28
ATOM     28  C   UNL     1     -70.156 -59.643 -72.765  0.00  0.00    +0.000 C 
ATOM     29  C   UNL     1     -69.481 -60.748 -73.518  0.00  0.00    +0.000 C 
ATOM     30  C   UNL     1     -70.738 -58.475 -73.501  0.00  0.00    +0.000 C 
ENDBRANCH  27  28
ENDBRANCH   2  26
TORSDOF 4
ENDMDL
