MODEL 1
REMARK VINA RESULT:      -4.6      0.000      0.000
REMARK  Name = 26879_Levamisole.pdbqt.pdb
REMARK  1 active torsions:
REMARK  status: ('A' for Active; 'I' for Inactive)
REMARK    1  A    between atoms: C_5  and  C_9
REMARK                            x       y       z     vdW  Elec       q    Type
REMARK                         _______ _______ _______ _____ _____    ______ ____
ROOT
ATOM      1  S   UNL     1     -63.199 -44.802 -53.569  0.00  0.00    +0.000 S 
ATOM      2  N   UNL     1     -65.065 -46.177 -55.167  0.00  0.00    +0.000 NA
ATOM      3  N   UNL     1     -63.163 -45.100 -56.247  0.00  0.00    +0.000 NA
ATOM      4  C   UNL     1     -64.616 -46.793 -56.377  0.00  0.00    +0.000 C 
ATOM      5  C   UNL     1     -63.598 -46.101 -57.054  0.00  0.00    +0.000 C 
ATOM      6  C   UNL     1     -64.770 -46.878 -53.943  0.00  0.00    +0.000 C 
ATOM      7  C   UNL     1     -63.960 -45.159 -55.138  0.00  0.00    +0.000 C 
ATOM      8  C   UNL     1     -63.846 -46.233 -52.957  0.00  0.00    +0.000 C 
ENDROOT
BRANCH   5   9
ATOM      9  C   UNL     1     -63.023 -46.398 -58.357  0.00  0.00    +0.000 A 
ATOM     10  C   UNL     1     -61.649 -46.285 -58.592  0.00  0.00    +0.000 A 
ATOM     11  C   UNL     1     -63.848 -46.802 -59.410  0.00  0.00    +0.000 A 
ATOM     12  C   UNL     1     -61.112 -46.570 -59.846  0.00  0.00    +0.000 A 
ATOM     13  C   UNL     1     -63.316 -47.089 -60.666  0.00  0.00    +0.000 A 
ATOM     14  C   UNL     1     -61.947 -46.973 -60.883  0.00  0.00    +0.000 A 
ENDBRANCH   5   9
TORSDOF 1
ENDMDL
MODEL 2
REMARK VINA RESULT:      -4.3     26.286     28.291
REMARK  Name = 26879_Levamisole.pdbqt.pdb
REMARK  1 active torsions:
REMARK  status: ('A' for Active; 'I' for Inactive)
REMARK    1  A    between atoms: C_5  and  C_9
REMARK                            x       y       z     vdW  Elec       q    Type
REMARK                         _______ _______ _______ _____ _____    ______ ____
ROOT
ATOM      1  S   UNL     1     -72.654 -57.133 -28.984  0.00  0.00    +0.000 S 
ATOM      2  N   UNL     1     -70.467 -55.425 -29.464  0.00  0.00    +0.000 NA
ATOM      3  N   UNL     1     -70.625 -57.511 -30.716  0.00  0.00    +0.000 NA
ATOM      4  C   UNL     1     -69.881 -55.404 -30.768  0.00  0.00    +0.000 C 
ATOM      5  C   UNL     1     -69.872 -56.640 -31.435  0.00  0.00    +0.000 C 
ATOM      6  C   UNL     1     -71.702 -54.701 -29.303  0.00  0.00    +0.000 C 
ATOM      7  C   UNL     1     -71.016 -56.817 -29.605  0.00  0.00    +0.000 C 
ATOM      8  C   UNL     1     -72.942 -55.472 -28.972  0.00  0.00    +0.000 C 
ENDROOT
BRANCH   5   9
ATOM      9  C   UNL     1     -69.245 -56.970 -32.706  0.00  0.00    +0.000 A 
ATOM     10  C   UNL     1     -68.013 -57.628 -32.763  0.00  0.00    +0.000 A 
ATOM     11  C   UNL     1     -69.872 -56.625 -33.906  0.00  0.00    +0.000 A 
ATOM     12  C   UNL     1     -67.422 -57.936 -33.988  0.00  0.00    +0.000 A 
ATOM     13  C   UNL     1     -69.286 -56.930 -35.133  0.00  0.00    +0.000 A 
ATOM     14  C   UNL     1     -68.060 -57.586 -35.173  0.00  0.00    +0.000 A 
ENDBRANCH   5   9
TORSDOF 1
ENDMDL
MODEL 3
REMARK VINA RESULT:      -4.3     26.165     28.434
REMARK  Name = 26879_Levamisole.pdbqt.pdb
REMARK  1 active torsions:
REMARK  status: ('A' for Active; 'I' for Inactive)
REMARK    1  A    between atoms: C_5  and  C_9
REMARK                            x       y       z     vdW  Elec       q    Type
REMARK                         _______ _______ _______ _____ _____    ______ ____
ROOT
ATOM      1  S   UNL     1     -69.131 -58.556 -35.736  0.00  0.00    +0.000 S 
ATOM      2  N   UNL     1     -67.407 -58.095 -33.559  0.00  0.00    +0.000 NA
ATOM      3  N   UNL     1     -69.635 -57.107 -33.521  0.00  0.00    +0.000 NA
ATOM      4  C   UNL     1     -67.972 -57.905 -32.259  0.00  0.00    +0.000 C 
ATOM      5  C   UNL     1     -69.203 -57.229 -32.240  0.00  0.00    +0.000 C 
ATOM      6  C   UNL     1     -67.336 -59.453 -34.035  0.00  0.00    +0.000 C 
ATOM      7  C   UNL     1     -68.640 -57.643 -34.289  0.00  0.00    +0.000 C 
ATOM      8  C   UNL     1     -68.146 -59.829 -35.236  0.00  0.00    +0.000 C 
ENDROOT
BRANCH   5   9
ATOM      9  C   UNL     1     -69.962 -56.778 -31.083  0.00  0.00    +0.000 A 
ATOM     10  C   UNL     1     -70.894 -57.607 -30.453  0.00  0.00    +0.000 A 
ATOM     11  C   UNL     1     -69.771 -55.488 -30.580  0.00  0.00    +0.000 A 
ATOM     12  C   UNL     1     -71.617 -57.162 -29.347  0.00  0.00    +0.000 A 
ATOM     13  C   UNL     1     -70.490 -55.037 -29.475  0.00  0.00    +0.000 A 
ATOM     14  C   UNL     1     -71.413 -55.875 -28.859  0.00  0.00    +0.000 A 
ENDBRANCH   5   9
TORSDOF 1
ENDMDL
MODEL 4
REMARK VINA RESULT:      -4.1     28.813     32.557
REMARK  Name = 26879_Levamisole.pdbqt.pdb
REMARK  1 active torsions:
REMARK  status: ('A' for Active; 'I' for Inactive)
REMARK    1  A    between atoms: C_5  and  C_9
REMARK                            x       y       z     vdW  Elec       q    Type
REMARK                         _______ _______ _______ _____ _____    ______ ____
ROOT
ATOM      1  S   UNL     1     -70.536 -58.271 -31.555  0.00  0.00    +0.000 S 
ATOM      2  N   UNL     1     -71.379 -55.989 -30.139  0.00  0.00    +0.000 NA
ATOM      3  N   UNL     1     -71.804 -58.189 -29.179  0.00  0.00    +0.000 NA
ATOM      4  C   UNL     1     -71.419 -56.039 -28.710  0.00  0.00    +0.000 C 
ATOM      5  C   UNL     1     -71.780 -57.284 -28.169  0.00  0.00    +0.000 C 
ATOM      6  C   UNL     1     -70.082 -55.812 -30.739  0.00  0.00    +0.000 C 
ATOM      7  C   UNL     1     -71.528 -57.475 -30.311  0.00  0.00    +0.000 C 
ATOM      8  C   UNL     1     -69.531 -56.918 -31.585  0.00  0.00    +0.000 C 
ENDROOT
BRANCH   5   9
ATOM      9  C   UNL     1     -72.027 -57.619 -26.775  0.00  0.00    +0.000 A 
ATOM     10  C   UNL     1     -71.206 -58.514 -26.082  0.00  0.00    +0.000 A 
ATOM     11  C   UNL     1     -73.108 -57.046 -26.098  0.00  0.00    +0.000 A 
ATOM     12  C   UNL     1     -71.456 -58.829 -24.748  0.00  0.00    +0.000 A 
ATOM     13  C   UNL     1     -73.362 -57.358 -24.764  0.00  0.00    +0.000 A 
ATOM     14  C   UNL     1     -72.536 -58.249 -24.089  0.00  0.00    +0.000 A 
ENDBRANCH   5   9
TORSDOF 1
ENDMDL
MODEL 5
REMARK VINA RESULT:      -4.1     20.147     21.719
REMARK  Name = 26879_Levamisole.pdbqt.pdb
REMARK  1 active torsions:
REMARK  status: ('A' for Active; 'I' for Inactive)
REMARK    1  A    between atoms: C_5  and  C_9
REMARK                            x       y       z     vdW  Elec       q    Type
REMARK                         _______ _______ _______ _____ _____    ______ ____
ROOT
ATOM      1  S   UNL     1     -64.145 -63.332 -70.028  0.00  0.00    +0.000 S 
ATOM      2  N   UNL     1     -65.305 -60.767 -70.068  0.00  0.00    +0.000 NA
ATOM      3  N   UNL     1     -64.551 -61.748 -72.169  0.00  0.00    +0.000 NA
ATOM      4  C   UNL     1     -66.026 -60.354 -71.232  0.00  0.00    +0.000 C 
ATOM      5  C   UNL     1     -65.512 -60.831 -72.449  0.00  0.00    +0.000 C 
ATOM      6  C   UNL     1     -65.991 -61.664 -69.174  0.00  0.00    +0.000 C 
ATOM      7  C   UNL     1     -64.453 -61.762 -70.806  0.00  0.00    +0.000 C 
ATOM      8  C   UNL     1     -65.445 -63.046 -68.993  0.00  0.00    +0.000 C 
ENDROOT
BRANCH   5   9
ATOM      9  C   UNL     1     -65.939 -60.493 -73.799  0.00  0.00    +0.000 A 
ATOM     10  C   UNL     1     -67.068 -59.701 -74.031  0.00  0.00    +0.000 A 
ATOM     11  C   UNL     1     -65.220 -60.966 -74.900  0.00  0.00    +0.000 A 
ATOM     12  C   UNL     1     -67.468 -59.386 -75.328  0.00  0.00    +0.000 A 
ATOM     13  C   UNL     1     -65.615 -60.655 -76.200  0.00  0.00    +0.000 A 
ATOM     14  C   UNL     1     -66.739 -59.864 -76.413  0.00  0.00    +0.000 A 
ENDBRANCH   5   9
TORSDOF 1
ENDMDL
MODEL 6
REMARK VINA RESULT:      -4.0     20.154     23.766
REMARK  Name = 26879_Levamisole.pdbqt.pdb
REMARK  1 active torsions:
REMARK  status: ('A' for Active; 'I' for Inactive)
REMARK    1  A    between atoms: C_5  and  C_9
REMARK                            x       y       z     vdW  Elec       q    Type
REMARK                         _______ _______ _______ _____ _____    ______ ____
ROOT
ATOM      1  S   UNL     1     -67.930 -55.264 -40.440  0.00  0.00    +0.000 S 
ATOM      2  N   UNL     1     -67.704 -57.901 -39.480  0.00  0.00    +0.000 NA
ATOM      3  N   UNL     1     -67.611 -56.059 -37.886  0.00  0.00    +0.000 NA
ATOM      4  C   UNL     1     -68.184 -58.201 -38.167  0.00  0.00    +0.000 C 
ATOM      5  C   UNL     1     -68.018 -57.172 -37.225  0.00  0.00    +0.000 C 
ATOM      6  C   UNL     1     -68.699 -57.779 -40.515  0.00  0.00    +0.000 C 
ATOM      7  C   UNL     1     -67.472 -56.445 -39.190  0.00  0.00    +0.000 C 
ATOM      8  C   UNL     1     -68.883 -56.446 -41.172  0.00  0.00    +0.000 C 
ENDROOT
BRANCH   5   9
ATOM      9  C   UNL     1     -68.286 -57.212 -35.795  0.00  0.00    +0.000 A 
ATOM     10  C   UNL     1     -69.511 -56.790 -35.269  0.00  0.00    +0.000 A 
ATOM     11  C   UNL     1     -67.307 -57.676 -34.912  0.00  0.00    +0.000 A 
ATOM     12  C   UNL     1     -69.754 -56.831 -33.897  0.00  0.00    +0.000 A 
ATOM     13  C   UNL     1     -67.544 -57.719 -33.540  0.00  0.00    +0.000 A 
ATOM     14  C   UNL     1     -68.768 -57.296 -33.033  0.00  0.00    +0.000 A 
ENDBRANCH   5   9
TORSDOF 1
ENDMDL
MODEL 7
REMARK VINA RESULT:      -4.0     19.589     22.280
REMARK  Name = 26879_Levamisole.pdbqt.pdb
REMARK  1 active torsions:
REMARK  status: ('A' for Active; 'I' for Inactive)
REMARK    1  A    between atoms: C_5  and  C_9
REMARK                            x       y       z     vdW  Elec       q    Type
REMARK                         _______ _______ _______ _____ _____    ______ ____
ROOT
ATOM      1  S   UNL     1     -71.442 -56.374 -35.564  0.00  0.00    +0.000 S 
ATOM      2  N   UNL     1     -68.933 -57.618 -35.848  0.00  0.00    +0.000 NA
ATOM      3  N   UNL     1     -69.872 -56.422 -37.753  0.00  0.00    +0.000 NA
ATOM      4  C   UNL     1     -67.978 -57.048 -36.747  0.00  0.00    +0.000 C 
ATOM      5  C   UNL     1     -68.524 -56.463 -37.901  0.00  0.00    +0.000 C 
ATOM      6  C   UNL     1     -69.080 -56.968 -34.571  0.00  0.00    +0.000 C 
ATOM      7  C   UNL     1     -70.123 -57.036 -36.558  0.00  0.00    +0.000 C 
ATOM      8  C   UNL     1     -70.391 -56.322 -34.247  0.00  0.00    +0.000 C 
ENDROOT
BRANCH   5   9
ATOM      9  C   UNL     1     -67.818 -55.917 -39.050  0.00  0.00    +0.000 A 
ATOM     10  C   UNL     1     -67.433 -56.727 -40.123  0.00  0.00    +0.000 A 
ATOM     11  C   UNL     1     -67.506 -54.555 -39.099  0.00  0.00    +0.000 A 
ATOM     12  C   UNL     1     -66.755 -56.192 -41.217  0.00  0.00    +0.000 A 
ATOM     13  C   UNL     1     -66.829 -54.015 -40.190  0.00  0.00    +0.000 A 
ATOM     14  C   UNL     1     -66.454 -54.834 -41.249  0.00  0.00    +0.000 A 
ENDBRANCH   5   9
TORSDOF 1
ENDMDL
MODEL 8
REMARK VINA RESULT:      -4.0     34.030     35.766
REMARK  Name = 26879_Levamisole.pdbqt.pdb
REMARK  1 active torsions:
REMARK  status: ('A' for Active; 'I' for Inactive)
REMARK    1  A    between atoms: C_5  and  C_9
REMARK                            x       y       z     vdW  Elec       q    Type
REMARK                         _______ _______ _______ _____ _____    ______ ____
ROOT
ATOM      1  S   UNL     1     -72.124 -60.427 -28.796  0.00  0.00    +0.000 S 
ATOM      2  N   UNL     1     -71.839 -61.233 -26.113  0.00  0.00    +0.000 NA
ATOM      3  N   UNL     1     -72.088 -58.858 -26.605  0.00  0.00    +0.000 NA
ATOM      4  C   UNL     1     -72.466 -60.456 -25.089  0.00  0.00    +0.000 C 
ATOM      5  C   UNL     1     -72.499 -59.073 -25.330  0.00  0.00    +0.000 C 
ATOM      6  C   UNL     1     -72.696 -62.117 -26.862  0.00  0.00    +0.000 C 
ATOM      7  C   UNL     1     -71.752 -60.092 -27.088  0.00  0.00    +0.000 C 
ATOM      8  C   UNL     1     -72.886 -61.855 -28.324  0.00  0.00    +0.000 C 
ENDROOT
BRANCH   5   9
ATOM      9  C   UNL     1     -72.950 -58.017 -24.436  0.00  0.00    +0.000 A 
ATOM     10  C   UNL     1     -73.593 -56.874 -24.921  0.00  0.00    +0.000 A 
ATOM     11  C   UNL     1     -72.738 -58.127 -23.059  0.00  0.00    +0.000 A 
ATOM     12  C   UNL     1     -74.017 -55.868 -24.054  0.00  0.00    +0.000 A 
ATOM     13  C   UNL     1     -73.160 -57.125 -22.187  0.00  0.00    +0.000 A 
ATOM     14  C   UNL     1     -73.800 -55.995 -22.686  0.00  0.00    +0.000 A 
ENDBRANCH   5   9
TORSDOF 1
ENDMDL
MODEL 9
REMARK VINA RESULT:      -3.9     42.676     43.721
REMARK  Name = 26879_Levamisole.pdbqt.pdb
REMARK  1 active torsions:
REMARK  status: ('A' for Active; 'I' for Inactive)
REMARK    1  A    between atoms: C_5  and  C_9
REMARK                            x       y       z     vdW  Elec       q    Type
REMARK                         _______ _______ _______ _____ _____    ______ ____
ROOT
ATOM      1  S   UNL     1     -63.785 -53.797 -16.170  0.00  0.00    +0.000 S 
ATOM      2  N   UNL     1     -64.114 -55.076 -13.684  0.00  0.00    +0.000 NA
ATOM      3  N   UNL     1     -64.658 -56.306 -15.718  0.00  0.00    +0.000 NA
ATOM      4  C   UNL     1     -63.942 -56.494 -13.609  0.00  0.00    +0.000 C 
ATOM      5  C   UNL     1     -64.367 -57.205 -14.743  0.00  0.00    +0.000 C 
ATOM      6  C   UNL     1     -62.911 -54.286 -13.738  0.00  0.00    +0.000 C 
ATOM      7  C   UNL     1     -64.470 -55.079 -15.144  0.00  0.00    +0.000 C 
ATOM      8  C   UNL     1     -62.637 -53.489 -14.975  0.00  0.00    +0.000 C 
ENDROOT
BRANCH   5   9
ATOM      9  C   UNL     1     -64.440 -58.647 -14.924  0.00  0.00    +0.000 A 
ATOM     10  C   UNL     1     -64.943 -59.484 -13.924  0.00  0.00    +0.000 A 
ATOM     11  C   UNL     1     -63.997 -59.226 -16.117  0.00  0.00    +0.000 A 
ATOM     12  C   UNL     1     -65.004 -60.864 -14.109  0.00  0.00    +0.000 A 
ATOM     13  C   UNL     1     -64.055 -60.605 -16.308  0.00  0.00    +0.000 A 
ATOM     14  C   UNL     1     -64.559 -61.424 -15.303  0.00  0.00    +0.000 A 
ENDBRANCH   5   9
TORSDOF 1
ENDMDL
