MODEL 1
REMARK VINA RESULT:      -4.3      0.000      0.000
REMARK  Name = 27924_Phorbol.pdbqt.pdb
REMARK  26 active torsions:
REMARK  status: ('A' for Active; 'I' for Inactive)
REMARK    1  A    between atoms: O_1  and  C_10
REMARK    2  A    between atoms: O_1  and  C_26
REMARK    3  A    between atoms: O_2  and  C_13
REMARK    4  A    between atoms: O_2  and  C_28
REMARK    5  A    between atoms: O_3  and  C_14
REMARK    6  A    between atoms: O_4  and  C_20
REMARK    7  A    between atoms: O_7  and  C_29
REMARK    8  A    between atoms: C_11  and  C_16
REMARK    9  A    between atoms: C_11  and  C_17
REMARK   10  A    between atoms: C_15  and  C_21
REMARK   11  A    between atoms: C_22  and  C_29
REMARK   12  A    between atoms: C_26  and  C_30
REMARK   13  A    between atoms: C_27  and  C_31
REMARK   14  A    between atoms: C_28  and  C_32
REMARK   15  A    between atoms: C_32  and  C_33
REMARK   16  A    between atoms: C_33  and  C_34
REMARK   17  A    between atoms: C_34  and  C_35
REMARK   18  A    between atoms: C_35  and  C_36
REMARK   19  A    between atoms: C_36  and  C_37
REMARK   20  A    between atoms: C_37  and  C_38
REMARK   21  A    between atoms: C_38  and  C_39
REMARK   22  A    between atoms: C_39  and  C_40
REMARK   23  A    between atoms: C_40  and  C_41
REMARK   24  A    between atoms: C_41  and  C_42
REMARK   25  A    between atoms: C_42  and  C_43
REMARK   26  A    between atoms: C_43  and  C_44
REMARK                            x       y       z     vdW  Elec       q    Type
REMARK                         _______ _______ _______ _____ _____    ______ ____
ROOT
ATOM      1  O   UNL     1     -60.101 -57.531 -24.649  0.00  0.00    +0.000 OA
ATOM      2  C   UNL     1     -61.788 -51.653 -21.049  0.00  0.00    +0.000 C 
ATOM      3  C   UNL     1     -61.554 -51.592 -19.551  0.00  0.00    +0.000 C 
ATOM      4  C   UNL     1     -62.993 -51.709 -20.130  0.00  0.00    +0.000 C 
ATOM      5  C   UNL     1     -61.141 -52.716 -21.885  0.00  0.00    +0.000 C 
ATOM      6  C   UNL     1     -60.784 -52.763 -18.912  0.00  0.00    +0.000 C 
ATOM      7  C   UNL     1     -60.540 -53.997 -21.144  0.00  0.00    +0.000 C 
ATOM      8  C   UNL     1     -59.753 -53.389 -19.916  0.00  0.00    +0.000 C 
ATOM      9  C   UNL     1     -63.883 -50.478 -20.194  0.00  0.00    +0.000 C 
ATOM     10  C   UNL     1     -63.811 -52.969 -19.996  0.00  0.00    +0.000 C 
ATOM     11  C   UNL     1     -59.731 -54.884 -22.220  0.00  0.00    +0.000 C 
ATOM     12  C   UNL     1     -61.927 -53.062 -23.136  0.00  0.00    +0.000 C 
ATOM     13  C   UNL     1     -60.626 -55.531 -23.367  0.00  0.00    +0.000 C 
ATOM     14  C   UNL     1     -58.814 -54.347 -19.183  0.00  0.00    +0.000 C 
ATOM     15  C   UNL     1     -61.205 -53.237 -24.264  0.00  0.00    +0.000 C 
ATOM     16  C   UNL     1     -60.860 -54.670 -24.628  0.00  0.00    +0.000 C 
ATOM     17  C   UNL     1     -58.964 -56.117 -21.758  0.00  0.00    +0.000 C 
ATOM     18  C   UNL     1     -59.884 -56.812 -23.685  0.00  0.00    +0.000 C 
ATOM     19  C   UNL     1     -58.976 -57.168 -22.589  0.00  0.00    +0.000 C 
ATOM     20  C   UNL     1     -58.283 -58.470 -22.507  0.00  0.00    +0.000 C 
ENDROOT
BRANCH   7  21
ATOM     21  O   UNL     1     -61.565 -54.830 -20.586  0.00  0.00    +0.000 OA
ATOM     22  H   UNL     1     -61.682 -54.575 -19.644  0.00  0.00    +0.000 HD
ENDBRANCH   7  21
BRANCH  13  23
ATOM     23  O   UNL     1     -61.896 -55.999 -22.849  0.00  0.00    +0.000 OA
ATOM     24  H   UNL     1     -62.287 -55.242 -22.366  0.00  0.00    +0.000 HD
ENDBRANCH  13  23
BRANCH   3  25
ATOM     25  O   UNL     1     -61.053 -50.279 -19.189  0.00  0.00    +0.000 OA
BRANCH  25  27
ATOM     26  O   UNL     1     -59.002 -49.949 -20.043  0.00  0.00    +0.000 OA
ATOM     27  C   UNL     1     -60.162 -49.560 -19.917  0.00  0.00    +0.000 C 
ATOM     28  C   UNL     1     -60.638 -48.330 -20.631  0.00  0.00    +0.000 C 
ENDBRANCH  25  27
ENDBRANCH   3  25
BRANCH  15  29
ATOM     29  C   UNL     1     -60.276 -52.193 -24.826  0.00  0.00    +0.000 C 
BRANCH  29  30
ATOM     30  O   UNL     1     -59.014 -52.798 -25.051  0.00  0.00    +0.000 OA
ATOM     31  H   UNL     1     -58.413 -52.090 -25.343  0.00  0.00    +0.000 HD
ENDBRANCH  29  30
ENDBRANCH  15  29
BRANCH   6  32
ATOM     32  O   UNL     1     -60.089 -52.255 -17.741  0.00  0.00    +0.000 OA
BRANCH  32  34
ATOM     33  O   UNL     1     -59.774 -52.039 -15.537  0.00  0.00    +0.000 OA
ATOM     34  C   UNL     1     -60.504 -52.390 -16.461  0.00  0.00    +0.000 C 
BRANCH  34  35
ATOM     35  C   UNL     1     -61.867 -52.974 -16.182  0.00  0.00    +0.000 C 
BRANCH  35  36
ATOM     36  C   UNL     1     -61.780 -54.441 -15.778  0.00  0.00    +0.000 C 
BRANCH  36  37
ATOM     37  C   UNL     1     -62.941 -55.303 -16.287  0.00  0.00    +0.000 C 
BRANCH  37  38
ATOM     38  C   UNL     1     -64.027 -55.585 -15.241  0.00  0.00    +0.000 C 
BRANCH  38  39
ATOM     39  C   UNL     1     -65.439 -55.325 -15.777  0.00  0.00    +0.000 C 
BRANCH  39  40
ATOM     40  C   UNL     1     -65.870 -53.859 -15.677  0.00  0.00    +0.000 C 
BRANCH  40  41
ATOM     41  C   UNL     1     -65.854 -53.136 -17.027  0.00  0.00    +0.000 C 
BRANCH  41  42
ATOM     42  C   UNL     1     -65.733 -51.615 -16.898  0.00  0.00    +0.000 C 
BRANCH  42  43
ATOM     43  C   UNL     1     -66.882 -50.802 -17.501  0.00  0.00    +0.000 C 
BRANCH  43  44
ATOM     44  C   UNL     1     -67.410 -51.303 -18.849  0.00  0.00    +0.000 C 
BRANCH  44  45
ATOM     45  C   UNL     1     -67.503 -50.249 -19.956  0.00  0.00    +0.000 C 
BRANCH  45  46
ATOM     46  C   UNL     1     -68.911 -49.957 -20.480  0.00  0.00    +0.000 C 
ATOM     47  C   UNL     1     -69.992 -50.791 -19.810  0.00  0.00    +0.000 C 
ENDBRANCH  45  46
ENDBRANCH  44  45
ENDBRANCH  43  44
ENDBRANCH  42  43
ENDBRANCH  41  42
ENDBRANCH  40  41
ENDBRANCH  39  40
ENDBRANCH  38  39
ENDBRANCH  37  38
ENDBRANCH  36  37
ENDBRANCH  35  36
ENDBRANCH  34  35
ENDBRANCH  32  34
ENDBRANCH   6  32
TORSDOF 20
ENDMDL
MODEL 2
REMARK VINA RESULT:      -4.3      1.885      5.227
REMARK  Name = 27924_Phorbol.pdbqt.pdb
REMARK  26 active torsions:
REMARK  status: ('A' for Active; 'I' for Inactive)
REMARK    1  A    between atoms: O_1  and  C_10
REMARK    2  A    between atoms: O_1  and  C_26
REMARK    3  A    between atoms: O_2  and  C_13
REMARK    4  A    between atoms: O_2  and  C_28
REMARK    5  A    between atoms: O_3  and  C_14
REMARK    6  A    between atoms: O_4  and  C_20
REMARK    7  A    between atoms: O_7  and  C_29
REMARK    8  A    between atoms: C_11  and  C_16
REMARK    9  A    between atoms: C_11  and  C_17
REMARK   10  A    between atoms: C_15  and  C_21
REMARK   11  A    between atoms: C_22  and  C_29
REMARK   12  A    between atoms: C_26  and  C_30
REMARK   13  A    between atoms: C_27  and  C_31
REMARK   14  A    between atoms: C_28  and  C_32
REMARK   15  A    between atoms: C_32  and  C_33
REMARK   16  A    between atoms: C_33  and  C_34
REMARK   17  A    between atoms: C_34  and  C_35
REMARK   18  A    between atoms: C_35  and  C_36
REMARK   19  A    between atoms: C_36  and  C_37
REMARK   20  A    between atoms: C_37  and  C_38
REMARK   21  A    between atoms: C_38  and  C_39
REMARK   22  A    between atoms: C_39  and  C_40
REMARK   23  A    between atoms: C_40  and  C_41
REMARK   24  A    between atoms: C_41  and  C_42
REMARK   25  A    between atoms: C_42  and  C_43
REMARK   26  A    between atoms: C_43  and  C_44
REMARK                            x       y       z     vdW  Elec       q    Type
REMARK                         _______ _______ _______ _____ _____    ______ ____
ROOT
ATOM      1  O   UNL     1     -62.955 -47.439 -22.279  0.00  0.00    +0.000 OA
ATOM      2  C   UNL     1     -59.369 -53.554 -22.606  0.00  0.00    +0.000 C 
ATOM      3  C   UNL     1     -59.385 -54.503 -21.422  0.00  0.00    +0.000 C 
ATOM      4  C   UNL     1     -58.111 -53.681 -21.770  0.00  0.00    +0.000 C 
ATOM      5  C   UNL     1     -60.369 -52.442 -22.713  0.00  0.00    +0.000 C 
ATOM      6  C   UNL     1     -60.341 -54.163 -20.263  0.00  0.00    +0.000 C 
ATOM      7  C   UNL     1     -61.178 -52.025 -21.400  0.00  0.00    +0.000 C 
ATOM      8  C   UNL     1     -61.618 -53.408 -20.773  0.00  0.00    +0.000 C 
ATOM      9  C   UNL     1     -56.952 -54.353 -22.486  0.00  0.00    +0.000 C 
ATOM     10  C   UNL     1     -57.633 -52.540 -20.906  0.00  0.00    +0.000 C 
ATOM     11  C   UNL     1     -62.319 -50.963 -21.811  0.00  0.00    +0.000 C 
ATOM     12  C   UNL     1     -59.866 -51.252 -23.509  0.00  0.00    +0.000 C 
ATOM     13  C   UNL     1     -61.775 -49.565 -22.345  0.00  0.00    +0.000 C 
ATOM     14  C   UNL     1     -62.669 -53.335 -19.665  0.00  0.00    +0.000 C 
ATOM     15  C   UNL     1     -60.747 -50.691 -24.365  0.00  0.00    +0.000 C 
ATOM     16  C   UNL     1     -61.493 -49.468 -23.861  0.00  0.00    +0.000 C 
ATOM     17  C   UNL     1     -63.310 -50.476 -20.762  0.00  0.00    +0.000 C 
ATOM     18  C   UNL     1     -62.854 -48.599 -21.907  0.00  0.00    +0.000 C 
ATOM     19  C   UNL     1     -63.675 -49.189 -20.844  0.00  0.00    +0.000 C 
ATOM     20  C   UNL     1     -64.662 -48.415 -20.063  0.00  0.00    +0.000 C 
ENDROOT
BRANCH   7  21
ATOM     21  O   UNL     1     -60.337 -51.396 -20.424  0.00  0.00    +0.000 OA
ATOM     22  H   UNL     1     -59.504 -51.913 -20.365  0.00  0.00    +0.000 HD
ENDBRANCH   7  21
BRANCH  13  23
ATOM     23  O   UNL     1     -60.612 -49.128 -21.600  0.00  0.00    +0.000 OA
ATOM     24  H   UNL     1     -59.833 -49.385 -22.136  0.00  0.00    +0.000 HD
ENDBRANCH  13  23
BRANCH   3  25
ATOM     25  O   UNL     1     -59.483 -55.871 -21.895  0.00  0.00    +0.000 OA
BRANCH  25  27
ATOM     26  O   UNL     1     -61.451 -56.124 -22.947  0.00  0.00    +0.000 OA
ATOM     27  C   UNL     1     -60.231 -56.276 -22.953  0.00  0.00    +0.000 C 
ATOM     28  C   UNL     1     -59.535 -56.834 -24.157  0.00  0.00    +0.000 C 
ENDBRANCH  25  27
ENDBRANCH   3  25
BRANCH  15  29
ATOM     29  C   UNL     1     -61.442 -51.456 -25.460  0.00  0.00    +0.000 C 
BRANCH  29  30
ATOM     30  O   UNL     1     -62.383 -52.331 -24.862  0.00  0.00    +0.000 OA
ATOM     31  H   UNL     1     -62.557 -53.039 -25.508  0.00  0.00    +0.000 HD
ENDBRANCH  29  30
ENDBRANCH  15  29
BRANCH   6  32
ATOM     32  O   UNL     1     -60.725 -55.409 -19.621  0.00  0.00    +0.000 OA
BRANCH  32  34
ATOM     33  O   UNL     1     -58.973 -55.718 -18.266  0.00  0.00    +0.000 OA
ATOM     34  C   UNL     1     -60.160 -55.926 -18.507  0.00  0.00    +0.000 C 
BRANCH  34  35
ATOM     35  C   UNL     1     -60.999 -56.757 -17.568  0.00  0.00    +0.000 C 
BRANCH  35  36
ATOM     36  C   UNL     1     -62.331 -56.084 -17.258  0.00  0.00    +0.000 C 
BRANCH  36  37
ATOM     37  C   UNL     1     -62.333 -55.259 -15.966  0.00  0.00    +0.000 C 
BRANCH  37  38
ATOM     38  C   UNL     1     -62.877 -56.004 -14.739  0.00  0.00    +0.000 C 
BRANCH  38  39
ATOM     39  C   UNL     1     -64.289 -55.550 -14.356  0.00  0.00    +0.000 C 
BRANCH  39  40
ATOM     40  C   UNL     1     -65.237 -55.427 -15.553  0.00  0.00    +0.000 C 
BRANCH  40  41
ATOM     41  C   UNL     1     -65.919 -54.059 -15.641  0.00  0.00    +0.000 C 
BRANCH  41  42
ATOM     42  C   UNL     1     -65.332 -53.159 -16.731  0.00  0.00    +0.000 C 
BRANCH  42  43
ATOM     43  C   UNL     1     -65.906 -53.354 -18.137  0.00  0.00    +0.000 C 
BRANCH  43  44
ATOM     44  C   UNL     1     -66.167 -52.069 -18.929  0.00  0.00    +0.000 C 
BRANCH  44  45
ATOM     45  C   UNL     1     -67.004 -51.007 -18.209  0.00  0.00    +0.000 C 
BRANCH  45  46
ATOM     46  C   UNL     1     -68.304 -50.600 -18.907  0.00  0.00    +0.000 C 
ATOM     47  C   UNL     1     -68.569 -51.369 -20.191  0.00  0.00    +0.000 C 
ENDBRANCH  45  46
ENDBRANCH  44  45
ENDBRANCH  43  44
ENDBRANCH  42  43
ENDBRANCH  41  42
ENDBRANCH  40  41
ENDBRANCH  39  40
ENDBRANCH  38  39
ENDBRANCH  37  38
ENDBRANCH  36  37
ENDBRANCH  35  36
ENDBRANCH  34  35
ENDBRANCH  32  34
ENDBRANCH   6  32
TORSDOF 20
ENDMDL
MODEL 3
REMARK VINA RESULT:      -4.2     11.931     16.392
REMARK  Name = 27924_Phorbol.pdbqt.pdb
REMARK  26 active torsions:
REMARK  status: ('A' for Active; 'I' for Inactive)
REMARK    1  A    between atoms: O_1  and  C_10
REMARK    2  A    between atoms: O_1  and  C_26
REMARK    3  A    between atoms: O_2  and  C_13
REMARK    4  A    between atoms: O_2  and  C_28
REMARK    5  A    between atoms: O_3  and  C_14
REMARK    6  A    between atoms: O_4  and  C_20
REMARK    7  A    between atoms: O_7  and  C_29
REMARK    8  A    between atoms: C_11  and  C_16
REMARK    9  A    between atoms: C_11  and  C_17
REMARK   10  A    between atoms: C_15  and  C_21
REMARK   11  A    between atoms: C_22  and  C_29
REMARK   12  A    between atoms: C_26  and  C_30
REMARK   13  A    between atoms: C_27  and  C_31
REMARK   14  A    between atoms: C_28  and  C_32
REMARK   15  A    between atoms: C_32  and  C_33
REMARK   16  A    between atoms: C_33  and  C_34
REMARK   17  A    between atoms: C_34  and  C_35
REMARK   18  A    between atoms: C_35  and  C_36
REMARK   19  A    between atoms: C_36  and  C_37
REMARK   20  A    between atoms: C_37  and  C_38
REMARK   21  A    between atoms: C_38  and  C_39
REMARK   22  A    between atoms: C_39  and  C_40
REMARK   23  A    between atoms: C_40  and  C_41
REMARK   24  A    between atoms: C_41  and  C_42
REMARK   25  A    between atoms: C_42  and  C_43
REMARK   26  A    between atoms: C_43  and  C_44
REMARK                            x       y       z     vdW  Elec       q    Type
REMARK                         _______ _______ _______ _____ _____    ______ ____
ROOT
ATOM      1  O   UNL     1     -76.272 -54.144 -19.795  0.00  0.00    +0.000 OA
ATOM      2  C   UNL     1     -76.342 -58.986 -24.982  0.00  0.00    +0.000 C 
ATOM      3  C   UNL     1     -75.046 -59.377 -25.668  0.00  0.00    +0.000 C 
ATOM      4  C   UNL     1     -76.106 -58.505 -26.401  0.00  0.00    +0.000 C 
ATOM      5  C   UNL     1     -76.329 -58.244 -23.680  0.00  0.00    +0.000 C 
ATOM      6  C   UNL     1     -73.741 -58.823 -25.068  0.00  0.00    +0.000 C 
ATOM      7  C   UNL     1     -74.972 -57.531 -23.231  0.00  0.00    +0.000 C 
ATOM      8  C   UNL     1     -73.862 -58.618 -23.517  0.00  0.00    +0.000 C 
ATOM      9  C   UNL     1     -77.021 -59.141 -27.435  0.00  0.00    +0.000 C 
ATOM     10  C   UNL     1     -75.875 -57.044 -26.699  0.00  0.00    +0.000 C 
ATOM     11  C   UNL     1     -75.150 -56.982 -21.725  0.00  0.00    +0.000 C 
ATOM     12  C   UNL     1     -77.559 -57.382 -23.463  0.00  0.00    +0.000 C 
ATOM     13  C   UNL     1     -76.228 -55.823 -21.555  0.00  0.00    +0.000 C 
ATOM     14  C   UNL     1     -72.486 -58.343 -22.910  0.00  0.00    +0.000 C 
ATOM     15  C   UNL     1     -78.090 -57.402 -22.221  0.00  0.00    +0.000 C 
ATOM     16  C   UNL     1     -77.685 -56.268 -21.296  0.00  0.00    +0.000 C 
ATOM     17  C   UNL     1     -73.965 -56.347 -21.008  0.00  0.00    +0.000 C 
ATOM     18  C   UNL     1     -75.669 -55.016 -20.402  0.00  0.00    +0.000 C 
ATOM     19  C   UNL     1     -74.243 -55.304 -20.215  0.00  0.00    +0.000 C 
ATOM     20  C   UNL     1     -73.372 -54.516 -19.318  0.00  0.00    +0.000 C 
ENDROOT
BRANCH   7  21
ATOM     21  O   UNL     1     -74.652 -56.407 -24.062  0.00  0.00    +0.000 OA
ATOM     22  H   UNL     1     -73.673 -56.331 -24.103  0.00  0.00    +0.000 HD
ENDBRANCH   7  21
BRANCH  13  23
ATOM     23  O   UNL     1     -76.188 -54.893 -22.665  0.00  0.00    +0.000 OA
ATOM     24  H   UNL     1     -76.745 -54.131 -22.401  0.00  0.00    +0.000 HD
ENDBRANCH  13  23
BRANCH   3  25
ATOM     25  O   UNL     1     -75.034 -60.808 -25.908  0.00  0.00    +0.000 OA
BRANCH  25  27
ATOM     26  O   UNL     1     -76.642 -62.291 -25.402  0.00  0.00    +0.000 OA
ATOM     27  C   UNL     1     -75.590 -61.737 -25.090  0.00  0.00    +0.000 C 
ATOM     28  C   UNL     1     -74.856 -62.134 -23.844  0.00  0.00    +0.000 C 
ENDBRANCH  25  27
ENDBRANCH   3  25
BRANCH  15  29
ATOM     29  C   UNL     1     -78.536 -58.662 -21.529  0.00  0.00    +0.000 C 
BRANCH  29  30
ATOM     30  O   UNL     1     -77.697 -58.873 -20.406  0.00  0.00    +0.000 OA
ATOM     31  H   UNL     1     -77.946 -59.735 -20.028  0.00  0.00    +0.000 HD
ENDBRANCH  29  30
ENDBRANCH  15  29
BRANCH   6  32
ATOM     32  O   UNL     1     -72.678 -59.771 -25.361  0.00  0.00    +0.000 OA
BRANCH  32  34
ATOM     33  O   UNL     1     -70.993 -60.523 -26.625  0.00  0.00    +0.000 OA
ATOM     34  C   UNL     1     -71.666 -59.572 -26.237  0.00  0.00    +0.000 C 
BRANCH  34  35
ATOM     35  C   UNL     1     -71.377 -58.175 -26.729  0.00  0.00    +0.000 C 
BRANCH  35  36
ATOM     36  C   UNL     1     -71.574 -58.057 -28.235  0.00  0.00    +0.000 C 
BRANCH  36  37
ATOM     37  C   UNL     1     -73.027 -58.222 -28.694  0.00  0.00    +0.000 C 
BRANCH  37  38
ATOM     38  C   UNL     1     -73.328 -57.625 -30.075  0.00  0.00    +0.000 C 
BRANCH  38  39
ATOM     39  C   UNL     1     -74.247 -56.401 -29.997  0.00  0.00    +0.000 C 
BRANCH  39  40
ATOM     40  C   UNL     1     -73.619 -55.209 -29.272  0.00  0.00    +0.000 C 
BRANCH  40  41
ATOM     41  C   UNL     1     -72.612 -54.444 -30.135  0.00  0.00    +0.000 C 
BRANCH  41  42
ATOM     42  C   UNL     1     -71.326 -54.080 -29.387  0.00  0.00    +0.000 C 
BRANCH  42  43
ATOM     43  C   UNL     1     -70.023 -54.568 -30.025  0.00  0.00    +0.000 C 
BRANCH  43  44
ATOM     44  C   UNL     1     -70.061 -55.984 -30.607  0.00  0.00    +0.000 C 
BRANCH  44  45
ATOM     45  C   UNL     1     -69.866 -56.082 -32.123  0.00  0.00    +0.000 C 
BRANCH  45  46
ATOM     46  C   UNL     1     -71.102 -56.489 -32.928  0.00  0.00    +0.000 C 
ATOM     47  C   UNL     1     -71.763 -55.326 -33.651  0.00  0.00    +0.000 C 
ENDBRANCH  45  46
ENDBRANCH  44  45
ENDBRANCH  43  44
ENDBRANCH  42  43
ENDBRANCH  41  42
ENDBRANCH  40  41
ENDBRANCH  39  40
ENDBRANCH  38  39
ENDBRANCH  37  38
ENDBRANCH  36  37
ENDBRANCH  35  36
ENDBRANCH  34  35
ENDBRANCH  32  34
ENDBRANCH   6  32
TORSDOF 20
ENDMDL
MODEL 4
REMARK VINA RESULT:      -4.2     32.629     36.987
REMARK  Name = 27924_Phorbol.pdbqt.pdb
REMARK  26 active torsions:
REMARK  status: ('A' for Active; 'I' for Inactive)
REMARK    1  A    between atoms: O_1  and  C_10
REMARK    2  A    between atoms: O_1  and  C_26
REMARK    3  A    between atoms: O_2  and  C_13
REMARK    4  A    between atoms: O_2  and  C_28
REMARK    5  A    between atoms: O_3  and  C_14
REMARK    6  A    between atoms: O_4  and  C_20
REMARK    7  A    between atoms: O_7  and  C_29
REMARK    8  A    between atoms: C_11  and  C_16
REMARK    9  A    between atoms: C_11  and  C_17
REMARK   10  A    between atoms: C_15  and  C_21
REMARK   11  A    between atoms: C_22  and  C_29
REMARK   12  A    between atoms: C_26  and  C_30
REMARK   13  A    between atoms: C_27  and  C_31
REMARK   14  A    between atoms: C_28  and  C_32
REMARK   15  A    between atoms: C_32  and  C_33
REMARK   16  A    between atoms: C_33  and  C_34
REMARK   17  A    between atoms: C_34  and  C_35
REMARK   18  A    between atoms: C_35  and  C_36
REMARK   19  A    between atoms: C_36  and  C_37
REMARK   20  A    between atoms: C_37  and  C_38
REMARK   21  A    between atoms: C_38  and  C_39
REMARK   22  A    between atoms: C_39  and  C_40
REMARK   23  A    between atoms: C_40  and  C_41
REMARK   24  A    between atoms: C_41  and  C_42
REMARK   25  A    between atoms: C_42  and  C_43
REMARK   26  A    between atoms: C_43  and  C_44
REMARK                            x       y       z     vdW  Elec       q    Type
REMARK                         _______ _______ _______ _____ _____    ______ ____
ROOT
ATOM      1  O   UNL     1     -66.601 -48.073 -59.168  0.00  0.00    +0.000 OA
ATOM      2  C   UNL     1     -61.653 -43.094 -58.125  0.00  0.00    +0.000 C 
ATOM      3  C   UNL     1     -61.650 -42.291 -56.838  0.00  0.00    +0.000 C 
ATOM      4  C   UNL     1     -62.087 -41.643 -58.183  0.00  0.00    +0.000 C 
ATOM      5  C   UNL     1     -62.446 -44.362 -58.238  0.00  0.00    +0.000 C 
ATOM      6  C   UNL     1     -62.629 -42.731 -55.734  0.00  0.00    +0.000 C 
ATOM      7  C   UNL     1     -63.582 -44.640 -57.150  0.00  0.00    +0.000 C 
ATOM      8  C   UNL     1     -62.889 -44.277 -55.778  0.00  0.00    +0.000 C 
ATOM      9  C   UNL     1     -61.126 -40.734 -58.930  0.00  0.00    +0.000 C 
ATOM     10  C   UNL     1     -63.522 -41.272 -58.464  0.00  0.00    +0.000 C 
ATOM     11  C   UNL     1     -64.145 -46.136 -57.363  0.00  0.00    +0.000 C 
ATOM     12  C   UNL     1     -62.884 -44.676 -59.656  0.00  0.00    +0.000 C 
ATOM     13  C   UNL     1     -64.910 -46.378 -58.739  0.00  0.00    +0.000 C 
ATOM     14  C   UNL     1     -63.627 -44.727 -54.517  0.00  0.00    +0.000 C 
ATOM     15  C   UNL     1     -62.779 -45.967 -60.041  0.00  0.00    +0.000 C 
ATOM     16  C   UNL     1     -64.043 -46.804 -59.944  0.00  0.00    +0.000 C 
ATOM     17  C   UNL     1     -65.171 -46.702 -56.389  0.00  0.00    +0.000 C 
ATOM     18  C   UNL     1     -65.928 -47.436 -58.372  0.00  0.00    +0.000 C 
ATOM     19  C   UNL     1     -66.122 -47.483 -56.918  0.00  0.00    +0.000 C 
ATOM     20  C   UNL     1     -67.205 -48.255 -56.274  0.00  0.00    +0.000 C 
ENDROOT
BRANCH   7  21
ATOM     21  O   UNL     1     -64.691 -43.742 -57.286  0.00  0.00    +0.000 OA
ATOM     22  H   UNL     1     -65.329 -43.939 -56.564  0.00  0.00    +0.000 HD
ENDBRANCH   7  21
BRANCH  13  23
ATOM     23  O   UNL     1     -65.727 -45.238 -59.099  0.00  0.00    +0.000 OA
ATOM     24  H   UNL     1     -66.655 -45.508 -58.939  0.00  0.00    +0.000 HD
ENDBRANCH  13  23
BRANCH   3  25
ATOM     25  O   UNL     1     -60.284 -42.102 -56.384  0.00  0.00    +0.000 OA
BRANCH  25  27
ATOM     26  O   UNL     1     -59.334 -44.055 -55.815  0.00  0.00    +0.000 OA
ATOM     27  C   UNL     1     -59.296 -43.026 -56.487  0.00  0.00    +0.000 C 
ATOM     28  C   UNL     1     -58.206 -42.809 -57.493  0.00  0.00    +0.000 C 
ENDBRANCH  25  27
ENDBRANCH   3  25
BRANCH  15  29
ATOM     29  C   UNL     1     -61.491 -46.746 -59.992  0.00  0.00    +0.000 C 
BRANCH  29  30
ATOM     30  O   UNL     1     -61.435 -47.581 -61.136  0.00  0.00    +0.000 OA
ATOM     31  H   UNL     1     -62.303 -48.018 -61.207  0.00  0.00    +0.000 HD
ENDBRANCH  29  30
ENDBRANCH  15  29
BRANCH   6  32
ATOM     32  O   UNL     1     -62.052 -42.361 -54.452  0.00  0.00    +0.000 OA
BRANCH  32  34
ATOM     33  O   UNL     1     -63.559 -40.802 -53.907  0.00  0.00    +0.000 OA
ATOM     34  C   UNL     1     -62.558 -41.444 -53.597  0.00  0.00    +0.000 C 
BRANCH  34  35
ATOM     35  C   UNL     1     -61.883 -41.219 -52.267  0.00  0.00    +0.000 C 
BRANCH  35  36
ATOM     36  C   UNL     1     -61.795 -42.506 -51.455  0.00  0.00    +0.000 C 
BRANCH  36  37
ATOM     37  C   UNL     1     -60.363 -42.991 -51.201  0.00  0.00    +0.000 C 
BRANCH  37  38
ATOM     38  C   UNL     1     -60.224 -44.513 -51.064  0.00  0.00    +0.000 C 
BRANCH  38  39
ATOM     39  C   UNL     1     -61.401 -45.268 -51.693  0.00  0.00    +0.000 C 
BRANCH  39  40
ATOM     40  C   UNL     1     -62.210 -46.088 -50.684  0.00  0.00    +0.000 C 
BRANCH  40  41
ATOM     41  C   UNL     1     -63.646 -46.354 -51.142  0.00  0.00    +0.000 C 
BRANCH  41  42
ATOM     42  C   UNL     1     -63.891 -47.808 -51.555  0.00  0.00    +0.000 C 
BRANCH  42  43
ATOM     43  C   UNL     1     -64.198 -48.037 -53.038  0.00  0.00    +0.000 C 
BRANCH  43  44
ATOM     44  C   UNL     1     -65.275 -49.084 -53.336  0.00  0.00    +0.000 C 
BRANCH  44  45
ATOM     45  C   UNL     1     -64.761 -50.494 -53.644  0.00  0.00    +0.000 C 
BRANCH  45  46
ATOM     46  C   UNL     1     -64.670 -51.445 -52.448  0.00  0.00    +0.000 C 
ATOM     47  C   UNL     1     -66.018 -51.996 -52.010  0.00  0.00    +0.000 C 
ENDBRANCH  45  46
ENDBRANCH  44  45
ENDBRANCH  43  44
ENDBRANCH  42  43
ENDBRANCH  41  42
ENDBRANCH  40  41
ENDBRANCH  39  40
ENDBRANCH  38  39
ENDBRANCH  37  38
ENDBRANCH  36  37
ENDBRANCH  35  36
ENDBRANCH  34  35
ENDBRANCH  32  34
ENDBRANCH   6  32
TORSDOF 20
ENDMDL
MODEL 5
REMARK VINA RESULT:      -4.2     17.620     21.381
REMARK  Name = 27924_Phorbol.pdbqt.pdb
REMARK  26 active torsions:
REMARK  status: ('A' for Active; 'I' for Inactive)
REMARK    1  A    between atoms: O_1  and  C_10
REMARK    2  A    between atoms: O_1  and  C_26
REMARK    3  A    between atoms: O_2  and  C_13
REMARK    4  A    between atoms: O_2  and  C_28
REMARK    5  A    between atoms: O_3  and  C_14
REMARK    6  A    between atoms: O_4  and  C_20
REMARK    7  A    between atoms: O_7  and  C_29
REMARK    8  A    between atoms: C_11  and  C_16
REMARK    9  A    between atoms: C_11  and  C_17
REMARK   10  A    between atoms: C_15  and  C_21
REMARK   11  A    between atoms: C_22  and  C_29
REMARK   12  A    between atoms: C_26  and  C_30
REMARK   13  A    between atoms: C_27  and  C_31
REMARK   14  A    between atoms: C_28  and  C_32
REMARK   15  A    between atoms: C_32  and  C_33
REMARK   16  A    between atoms: C_33  and  C_34
REMARK   17  A    between atoms: C_34  and  C_35
REMARK   18  A    between atoms: C_35  and  C_36
REMARK   19  A    between atoms: C_36  and  C_37
REMARK   20  A    between atoms: C_37  and  C_38
REMARK   21  A    between atoms: C_38  and  C_39
REMARK   22  A    between atoms: C_39  and  C_40
REMARK   23  A    between atoms: C_40  and  C_41
REMARK   24  A    between atoms: C_41  and  C_42
REMARK   25  A    between atoms: C_42  and  C_43
REMARK   26  A    between atoms: C_43  and  C_44
REMARK                            x       y       z     vdW  Elec       q    Type
REMARK                         _______ _______ _______ _____ _____    ______ ____
ROOT
ATOM      1  O   UNL     1     -73.505 -50.775 -40.720  0.00  0.00    +0.000 OA
ATOM      2  C   UNL     1     -68.355 -55.573 -41.627  0.00  0.00    +0.000 C 
ATOM      3  C   UNL     1     -68.101 -56.620 -40.558  0.00  0.00    +0.000 C 
ATOM      4  C   UNL     1     -67.109 -55.442 -40.774  0.00  0.00    +0.000 C 
ATOM      5  C   UNL     1     -69.626 -54.777 -41.637  0.00  0.00    +0.000 C 
ATOM      6  C   UNL     1     -69.110 -56.696 -39.398  0.00  0.00    +0.000 C 
ATOM      7  C   UNL     1     -70.515 -54.758 -40.311  0.00  0.00    +0.000 C 
ATOM      8  C   UNL     1     -70.549 -56.271 -39.857  0.00  0.00    +0.000 C 
ATOM      9  C   UNL     1     -65.810 -55.678 -41.526  0.00  0.00    +0.000 C 
ATOM     10  C   UNL     1     -66.966 -54.322 -39.773  0.00  0.00    +0.000 C 
ATOM     11  C   UNL     1     -71.908 -54.014 -40.633  0.00  0.00    +0.000 C 
ATOM     12  C   UNL     1     -69.477 -53.410 -42.279  0.00  0.00    +0.000 C 
ATOM     13  C   UNL     1     -71.777 -52.467 -40.990  0.00  0.00    +0.000 C 
ATOM     14  C   UNL     1     -71.575 -56.622 -38.779  0.00  0.00    +0.000 C 
ATOM     15  C   UNL     1     -70.483 -53.021 -43.092  0.00  0.00    +0.000 C 
ATOM     16  C   UNL     1     -71.538 -52.120 -42.476  0.00  0.00    +0.000 C 
ATOM     17  C   UNL     1     -72.993 -53.947 -39.566  0.00  0.00    +0.000 C 
ATOM     18  C   UNL     1     -73.083 -51.897 -40.478  0.00  0.00    +0.000 C 
ATOM     19  C   UNL     1     -73.702 -52.811 -39.513  0.00  0.00    +0.000 C 
ATOM     20  C   UNL     1     -74.864 -52.438 -38.679  0.00  0.00    +0.000 C 
ENDROOT
BRANCH   7  21
ATOM     21  O   UNL     1     -69.880 -54.038 -39.246  0.00  0.00    +0.000 OA
ATOM     22  H   UNL     1     -68.919 -53.992 -39.443  0.00  0.00    +0.000 HD
ENDBRANCH   7  21
BRANCH  13  23
ATOM     23  O   UNL     1     -70.781 -51.815 -40.166  0.00  0.00    +0.000 OA
ATOM     24  H   UNL     1     -71.277 -51.267 -39.523  0.00  0.00    +0.000 HD
ENDBRANCH  13  23
BRANCH   3  25
ATOM     25  O   UNL     1     -67.814 -57.897 -41.185  0.00  0.00    +0.000 OA
BRANCH  25  27
ATOM     26  O   UNL     1     -69.629 -58.685 -42.247  0.00  0.00    +0.000 OA
ATOM     27  C   UNL     1     -68.440 -58.378 -42.290  0.00  0.00    +0.000 C 
ATOM     28  C   UNL     1     -67.676 -58.449 -43.578  0.00  0.00    +0.000 C 
ENDBRANCH  25  27
ENDBRANCH   3  25
BRANCH  15  29
ATOM     29  C   UNL     1     -70.940 -53.816 -44.287  0.00  0.00    +0.000 C 
BRANCH  29  30
ATOM     30  O   UNL     1     -72.245 -54.301 -44.024  0.00  0.00    +0.000 OA
ATOM     31  H   UNL     1     -72.852 -53.794 -44.593  0.00  0.00    +0.000 HD
ENDBRANCH  29  30
ENDBRANCH  15  29
BRANCH   6  32
ATOM     32  O   UNL     1     -69.130 -58.066 -38.912  0.00  0.00    +0.000 OA
BRANCH  32  34
ATOM     33  O   UNL     1     -67.552 -59.357 -37.991  0.00  0.00    +0.000 OA
ATOM     34  C   UNL     1     -68.448 -58.530 -37.839  0.00  0.00    +0.000 C 
BRANCH  34  35
ATOM     35  C   UNL     1     -68.800 -58.022 -36.463  0.00  0.00    +0.000 C 
BRANCH  35  36
ATOM     36  C   UNL     1     -67.811 -56.966 -35.983  0.00  0.00    +0.000 C 
BRANCH  36  37
ATOM     37  C   UNL     1     -66.976 -57.393 -34.770  0.00  0.00    +0.000 C 
BRANCH  37  38
ATOM     38  C   UNL     1     -67.397 -58.732 -34.151  0.00  0.00    +0.000 C 
BRANCH  38  39
ATOM     39  C   UNL     1     -67.515 -58.661 -32.624  0.00  0.00    +0.000 C 
BRANCH  39  40
ATOM     40  C   UNL     1     -68.644 -57.748 -32.140  0.00  0.00    +0.000 C 
BRANCH  40  41
ATOM     41  C   UNL     1     -70.037 -58.284 -32.480  0.00  0.00    +0.000 C 
BRANCH  41  42
ATOM     42  C   UNL     1     -71.076 -57.179 -32.690  0.00  0.00    +0.000 C 
BRANCH  42  43
ATOM     43  C   UNL     1     -70.553 -55.880 -33.309  0.00  0.00    +0.000 C 
BRANCH  43  44
ATOM     44  C   UNL     1     -70.960 -55.631 -34.765  0.00  0.00    +0.000 C 
BRANCH  44  45
ATOM     45  C   UNL     1     -72.455 -55.773 -35.068  0.00  0.00    +0.000 C 
BRANCH  45  46
ATOM     46  C   UNL     1     -73.087 -54.622 -35.853  0.00  0.00    +0.000 C 
ATOM     47  C   UNL     1     -72.150 -53.443 -36.060  0.00  0.00    +0.000 C 
ENDBRANCH  45  46
ENDBRANCH  44  45
ENDBRANCH  43  44
ENDBRANCH  42  43
ENDBRANCH  41  42
ENDBRANCH  40  41
ENDBRANCH  39  40
ENDBRANCH  38  39
ENDBRANCH  37  38
ENDBRANCH  36  37
ENDBRANCH  35  36
ENDBRANCH  34  35
ENDBRANCH  32  34
ENDBRANCH   6  32
TORSDOF 20
ENDMDL
MODEL 6
REMARK VINA RESULT:      -4.2     12.803     16.413
REMARK  Name = 27924_Phorbol.pdbqt.pdb
REMARK  26 active torsions:
REMARK  status: ('A' for Active; 'I' for Inactive)
REMARK    1  A    between atoms: O_1  and  C_10
REMARK    2  A    between atoms: O_1  and  C_26
REMARK    3  A    between atoms: O_2  and  C_13
REMARK    4  A    between atoms: O_2  and  C_28
REMARK    5  A    between atoms: O_3  and  C_14
REMARK    6  A    between atoms: O_4  and  C_20
REMARK    7  A    between atoms: O_7  and  C_29
REMARK    8  A    between atoms: C_11  and  C_16
REMARK    9  A    between atoms: C_11  and  C_17
REMARK   10  A    between atoms: C_15  and  C_21
REMARK   11  A    between atoms: C_22  and  C_29
REMARK   12  A    between atoms: C_26  and  C_30
REMARK   13  A    between atoms: C_27  and  C_31
REMARK   14  A    between atoms: C_28  and  C_32
REMARK   15  A    between atoms: C_32  and  C_33
REMARK   16  A    between atoms: C_33  and  C_34
REMARK   17  A    between atoms: C_34  and  C_35
REMARK   18  A    between atoms: C_35  and  C_36
REMARK   19  A    between atoms: C_36  and  C_37
REMARK   20  A    between atoms: C_37  and  C_38
REMARK   21  A    between atoms: C_38  and  C_39
REMARK   22  A    between atoms: C_39  and  C_40
REMARK   23  A    between atoms: C_40  and  C_41
REMARK   24  A    between atoms: C_41  and  C_42
REMARK   25  A    between atoms: C_42  and  C_43
REMARK   26  A    between atoms: C_43  and  C_44
REMARK                            x       y       z     vdW  Elec       q    Type
REMARK                         _______ _______ _______ _____ _____    ______ ____
ROOT
ATOM      1  O   UNL     1     -68.700 -57.201 -32.429  0.00  0.00    +0.000 OA
ATOM      2  C   UNL     1     -73.595 -53.477 -28.890  0.00  0.00    +0.000 C 
ATOM      3  C   UNL     1     -74.367 -52.379 -29.598  0.00  0.00    +0.000 C 
ATOM      4  C   UNL     1     -73.275 -52.036 -28.546  0.00  0.00    +0.000 C 
ATOM      5  C   UNL     1     -72.820 -54.497 -29.669  0.00  0.00    +0.000 C 
ATOM      6  C   UNL     1     -74.168 -52.252 -31.120  0.00  0.00    +0.000 C 
ATOM      7  C   UNL     1     -72.490 -54.185 -31.201  0.00  0.00    +0.000 C 
ATOM      8  C   UNL     1     -73.856 -53.642 -31.778  0.00  0.00    +0.000 C 
ATOM      9  C   UNL     1     -73.684 -51.625 -27.141  0.00  0.00    +0.000 C 
ATOM     10  C   UNL     1     -71.953 -51.419 -28.934  0.00  0.00    +0.000 C 
ATOM     11  C   UNL     1     -71.835 -55.500 -31.866  0.00  0.00    +0.000 C 
ATOM     12  C   UNL     1     -71.639 -55.069 -28.907  0.00  0.00    +0.000 C 
ATOM     13  C   UNL     1     -70.414 -55.915 -31.279  0.00  0.00    +0.000 C 
ATOM     14  C   UNL     1     -73.944 -53.539 -33.301  0.00  0.00    +0.000 C 
ATOM     15  C   UNL     1     -71.445 -56.401 -29.020  0.00  0.00    +0.000 C 
ATOM     16  C   UNL     1     -70.422 -56.849 -30.048  0.00  0.00    +0.000 C 
ATOM     17  C   UNL     1     -71.519 -55.514 -33.356  0.00  0.00    +0.000 C 
ATOM     18  C   UNL     1     -69.736 -56.554 -32.471  0.00  0.00    +0.000 C 
ATOM     19  C   UNL     1     -70.400 -56.155 -33.717  0.00  0.00    +0.000 C 
ATOM     20  C   UNL     1     -69.839 -56.438 -35.056  0.00  0.00    +0.000 C 
ENDROOT
BRANCH   7  21
ATOM     21  O   UNL     1     -71.544 -53.117 -31.343  0.00  0.00    +0.000 OA
ATOM     22  H   UNL     1     -71.773 -52.618 -32.159  0.00  0.00    +0.000 HD
ENDBRANCH   7  21
BRANCH  13  23
ATOM     23  O   UNL     1     -69.592 -54.753 -31.009  0.00  0.00    +0.000 OA
ATOM     24  H   UNL     1     -68.911 -55.045 -30.368  0.00  0.00    +0.000 HD
ENDBRANCH  13  23
BRANCH   3  25
ATOM     25  O   UNL     1     -75.756 -52.410 -29.178  0.00  0.00    +0.000 OA
BRANCH  25  27
ATOM     26  O   UNL     1     -76.768 -54.280 -29.898  0.00  0.00    +0.000 OA
ATOM     27  C   UNL     1     -76.477 -53.539 -28.962  0.00  0.00    +0.000 C 
ATOM     28  C   UNL     1     -76.839 -53.906 -27.554  0.00  0.00    +0.000 C 
ENDBRANCH  25  27
ENDBRANCH   3  25
BRANCH  15  29
ATOM     29  C   UNL     1     -72.494 -57.425 -28.674  0.00  0.00    +0.000 C 
BRANCH  29  30
ATOM     30  O   UNL     1     -72.690 -58.258 -29.804  0.00  0.00    +0.000 OA
ATOM     31  H   UNL     1     -71.812 -58.593 -30.060  0.00  0.00    +0.000 HD
ENDBRANCH  29  30
ENDBRANCH  15  29
BRANCH   6  32
ATOM     32  O   UNL     1     -75.389 -51.699 -31.685  0.00  0.00    +0.000 OA
BRANCH  32  34
ATOM     33  O   UNL     1     -76.647 -49.874 -31.384  0.00  0.00    +0.000 OA
ATOM     34  C   UNL     1     -75.641 -50.384 -31.874  0.00  0.00    +0.000 C 
BRANCH  34  35
ATOM     35  C   UNL     1     -74.680 -49.554 -32.688  0.00  0.00    +0.000 C 
BRANCH  35  36
ATOM     36  C   UNL     1     -73.770 -48.713 -31.801  0.00  0.00    +0.000 C 
BRANCH  36  37
ATOM     37  C   UNL     1     -72.286 -49.083 -31.892  0.00  0.00    +0.000 C 
BRANCH  37  38
ATOM     38  C   UNL     1     -71.941 -50.041 -33.040  0.00  0.00    +0.000 C 
BRANCH  38  39
ATOM     39  C   UNL     1     -71.006 -49.404 -34.073  0.00  0.00    +0.000 C 
BRANCH  39  40
ATOM     40  C   UNL     1     -70.627 -47.957 -33.746  0.00  0.00    +0.000 C 
BRANCH  40  41
ATOM     41  C   UNL     1     -69.125 -47.767 -33.521  0.00  0.00    +0.000 C 
BRANCH  41  42
ATOM     42  C   UNL     1     -68.326 -49.068 -33.630  0.00  0.00    +0.000 C 
BRANCH  42  43
ATOM     43  C   UNL     1     -67.096 -49.173 -32.724  0.00  0.00    +0.000 C 
BRANCH  43  44
ATOM     44  C   UNL     1     -67.301 -49.945 -31.417  0.00  0.00    +0.000 C 
BRANCH  44  45
ATOM     45  C   UNL     1     -68.750 -50.049 -30.930  0.00  0.00    +0.000 C 
BRANCH  45  46
ATOM     46  C   UNL     1     -69.207 -48.956 -29.962  0.00  0.00    +0.000 C 
ATOM     47  C   UNL     1     -68.107 -48.475 -29.029  0.00  0.00    +0.000 C 
ENDBRANCH  45  46
ENDBRANCH  44  45
ENDBRANCH  43  44
ENDBRANCH  42  43
ENDBRANCH  41  42
ENDBRANCH  40  41
ENDBRANCH  39  40
ENDBRANCH  38  39
ENDBRANCH  37  38
ENDBRANCH  36  37
ENDBRANCH  35  36
ENDBRANCH  34  35
ENDBRANCH  32  34
ENDBRANCH   6  32
TORSDOF 20
ENDMDL
MODEL 7
REMARK VINA RESULT:      -4.1     57.651     62.702
REMARK  Name = 27924_Phorbol.pdbqt.pdb
REMARK  26 active torsions:
REMARK  status: ('A' for Active; 'I' for Inactive)
REMARK    1  A    between atoms: O_1  and  C_10
REMARK    2  A    between atoms: O_1  and  C_26
REMARK    3  A    between atoms: O_2  and  C_13
REMARK    4  A    between atoms: O_2  and  C_28
REMARK    5  A    between atoms: O_3  and  C_14
REMARK    6  A    between atoms: O_4  and  C_20
REMARK    7  A    between atoms: O_7  and  C_29
REMARK    8  A    between atoms: C_11  and  C_16
REMARK    9  A    between atoms: C_11  and  C_17
REMARK   10  A    between atoms: C_15  and  C_21
REMARK   11  A    between atoms: C_22  and  C_29
REMARK   12  A    between atoms: C_26  and  C_30
REMARK   13  A    between atoms: C_27  and  C_31
REMARK   14  A    between atoms: C_28  and  C_32
REMARK   15  A    between atoms: C_32  and  C_33
REMARK   16  A    between atoms: C_33  and  C_34
REMARK   17  A    between atoms: C_34  and  C_35
REMARK   18  A    between atoms: C_35  and  C_36
REMARK   19  A    between atoms: C_36  and  C_37
REMARK   20  A    between atoms: C_37  and  C_38
REMARK   21  A    between atoms: C_38  and  C_39
REMARK   22  A    between atoms: C_39  and  C_40
REMARK   23  A    between atoms: C_40  and  C_41
REMARK   24  A    between atoms: C_41  and  C_42
REMARK   25  A    between atoms: C_42  and  C_43
REMARK   26  A    between atoms: C_43  and  C_44
REMARK                            x       y       z     vdW  Elec       q    Type
REMARK                         _______ _______ _______ _____ _____    ______ ____
ROOT
ATOM      1  O   UNL     1     -49.242 -71.781 -80.108  0.00  0.00    +0.000 OA
ATOM      2  C   UNL     1     -45.721 -65.941 -82.075  0.00  0.00    +0.000 C 
ATOM      3  C   UNL     1     -45.985 -64.626 -81.366  0.00  0.00    +0.000 C 
ATOM      4  C   UNL     1     -46.492 -64.867 -82.817  0.00  0.00    +0.000 C 
ATOM      5  C   UNL     1     -46.174 -67.240 -81.478  0.00  0.00    +0.000 C 
ATOM      6  C   UNL     1     -46.887 -64.670 -80.119  0.00  0.00    +0.000 C 
ATOM      7  C   UNL     1     -47.267 -67.195 -80.314  0.00  0.00    +0.000 C 
ATOM      8  C   UNL     1     -46.760 -66.039 -79.364  0.00  0.00    +0.000 C 
ATOM      9  C   UNL     1     -45.742 -64.258 -83.989  0.00  0.00    +0.000 C 
ATOM     10  C   UNL     1     -47.957 -65.041 -83.135  0.00  0.00    +0.000 C 
ATOM     11  C   UNL     1     -47.436 -68.679 -79.706  0.00  0.00    +0.000 C 
ATOM     12  C   UNL     1     -46.443 -68.318 -82.511  0.00  0.00    +0.000 C 
ATOM     13  C   UNL     1     -48.041 -69.754 -80.714  0.00  0.00    +0.000 C 
ATOM     14  C   UNL     1     -47.435 -65.955 -77.995  0.00  0.00    +0.000 C 
ATOM     15  C   UNL     1     -46.007 -69.559 -82.206  0.00  0.00    +0.000 C 
ATOM     16  C   UNL     1     -47.031 -70.507 -81.608  0.00  0.00    +0.000 C 
ATOM     17  C   UNL     1     -48.345 -68.904 -78.505  0.00  0.00    +0.000 C 
ATOM     18  C   UNL     1     -48.789 -70.691 -79.791  0.00  0.00    +0.000 C 
ATOM     19  C   UNL     1     -49.046 -70.046 -78.498  0.00  0.00    +0.000 C 
ATOM     20  C   UNL     1     -49.942 -70.621 -77.473  0.00  0.00    +0.000 C 
ENDROOT
BRANCH   7  21
ATOM     21  O   UNL     1     -48.552 -66.780 -80.795  0.00  0.00    +0.000 OA
ATOM     22  H   UNL     1     -48.549 -65.799 -80.856  0.00  0.00    +0.000 HD
ENDBRANCH   7  21
BRANCH  13  23
ATOM     23  O   UNL     1     -49.091 -69.181 -81.532  0.00  0.00    +0.000 OA
ATOM     24  H   UNL     1     -49.108 -68.225 -81.321  0.00  0.00    +0.000 HD
ENDBRANCH  13  23
BRANCH   3  25
ATOM     25  O   UNL     1     -44.734 -63.916 -81.174  0.00  0.00    +0.000 OA
BRANCH  25  27
ATOM     26  O   UNL     1     -42.683 -64.504 -81.875  0.00  0.00    +0.000 OA
ATOM     27  C   UNL     1     -43.528 -64.506 -80.981  0.00  0.00    +0.000 C 
ATOM     28  C   UNL     1     -43.215 -65.086 -79.634  0.00  0.00    +0.000 C 
ENDBRANCH  25  27
ENDBRANCH   3  25
BRANCH  15  29
ATOM     29  C   UNL     1     -44.572 -69.877 -81.874  0.00  0.00    +0.000 C 
BRANCH  29  30
ATOM     30  O   UNL     1     -44.533 -70.448 -80.577  0.00  0.00    +0.000 OA
ATOM     31  H   UNL     1     -45.347 -70.974 -80.479  0.00  0.00    +0.000 HD
ENDBRANCH  29  30
ENDBRANCH  15  29
BRANCH   6  32
ATOM     32  O   UNL     1     -46.489 -63.581 -79.241  0.00  0.00    +0.000 OA
BRANCH  32  34
ATOM     33  O   UNL     1     -46.648 -61.507 -78.419  0.00  0.00    +0.000 OA
ATOM     34  C   UNL     1     -47.126 -62.394 -79.123  0.00  0.00    +0.000 C 
BRANCH  34  35
ATOM     35  C   UNL     1     -48.422 -62.172 -79.862  0.00  0.00    +0.000 C 
BRANCH  35  36
ATOM     36  C   UNL     1     -48.216 -61.352 -81.129  0.00  0.00    +0.000 C 
BRANCH  36  37
ATOM     37  C   UNL     1     -49.440 -60.534 -81.555  0.00  0.00    +0.000 C 
BRANCH  37  38
ATOM     38  C   UNL     1     -50.654 -60.681 -80.628  0.00  0.00    +0.000 C 
BRANCH  38  39
ATOM     39  C   UNL     1     -50.769 -59.529 -79.625  0.00  0.00    +0.000 C 
BRANCH  39  40
ATOM     40  C   UNL     1     -51.494 -59.913 -78.333  0.00  0.00    +0.000 C 
BRANCH  40  41
ATOM     41  C   UNL     1     -50.546 -60.413 -77.239  0.00  0.00    +0.000 C 
BRANCH  41  42
ATOM     42  C   UNL     1     -51.226 -61.337 -76.224  0.00  0.00    +0.000 C 
BRANCH  42  43
ATOM     43  C   UNL     1     -50.880 -62.824 -76.341  0.00  0.00    +0.000 C 
BRANCH  43  44
ATOM     44  C   UNL     1     -51.987 -63.795 -75.919  0.00  0.00    +0.000 C 
BRANCH  44  45
ATOM     45  C   UNL     1     -52.233 -63.904 -74.411  0.00  0.00    +0.000 C 
BRANCH  45  46
ATOM     46  C   UNL     1     -53.549 -63.309 -73.907  0.00  0.00    +0.000 C 
ATOM     47  C   UNL     1     -53.472 -62.792 -72.480  0.00  0.00    +0.000 C 
ENDBRANCH  45  46
ENDBRANCH  44  45
ENDBRANCH  43  44
ENDBRANCH  42  43
ENDBRANCH  41  42
ENDBRANCH  40  41
ENDBRANCH  39  40
ENDBRANCH  38  39
ENDBRANCH  37  38
ENDBRANCH  36  37
ENDBRANCH  35  36
ENDBRANCH  34  35
ENDBRANCH  32  34
ENDBRANCH   6  32
TORSDOF 20
ENDMDL
MODEL 8
REMARK VINA RESULT:      -4.1     57.679     60.512
REMARK  Name = 27924_Phorbol.pdbqt.pdb
REMARK  26 active torsions:
REMARK  status: ('A' for Active; 'I' for Inactive)
REMARK    1  A    between atoms: O_1  and  C_10
REMARK    2  A    between atoms: O_1  and  C_26
REMARK    3  A    between atoms: O_2  and  C_13
REMARK    4  A    between atoms: O_2  and  C_28
REMARK    5  A    between atoms: O_3  and  C_14
REMARK    6  A    between atoms: O_4  and  C_20
REMARK    7  A    between atoms: O_7  and  C_29
REMARK    8  A    between atoms: C_11  and  C_16
REMARK    9  A    between atoms: C_11  and  C_17
REMARK   10  A    between atoms: C_15  and  C_21
REMARK   11  A    between atoms: C_22  and  C_29
REMARK   12  A    between atoms: C_26  and  C_30
REMARK   13  A    between atoms: C_27  and  C_31
REMARK   14  A    between atoms: C_28  and  C_32
REMARK   15  A    between atoms: C_32  and  C_33
REMARK   16  A    between atoms: C_33  and  C_34
REMARK   17  A    between atoms: C_34  and  C_35
REMARK   18  A    between atoms: C_35  and  C_36
REMARK   19  A    between atoms: C_36  and  C_37
REMARK   20  A    between atoms: C_37  and  C_38
REMARK   21  A    between atoms: C_38  and  C_39
REMARK   22  A    between atoms: C_39  and  C_40
REMARK   23  A    between atoms: C_40  and  C_41
REMARK   24  A    between atoms: C_41  and  C_42
REMARK   25  A    between atoms: C_42  and  C_43
REMARK   26  A    between atoms: C_43  and  C_44
REMARK                            x       y       z     vdW  Elec       q    Type
REMARK                         _______ _______ _______ _____ _____    ______ ____
ROOT
ATOM      1  O   UNL     1     -66.841 -56.089 -78.860  0.00  0.00    +0.000 OA
ATOM      2  C   UNL     1     -62.551 -50.732 -80.666  0.00  0.00    +0.000 C 
ATOM      3  C   UNL     1     -61.046 -50.903 -80.566  0.00  0.00    +0.000 C 
ATOM      4  C   UNL     1     -61.818 -50.008 -79.553  0.00  0.00    +0.000 C 
ATOM      5  C   UNL     1     -63.463 -51.921 -80.629  0.00  0.00    +0.000 C 
ATOM      6  C   UNL     1     -60.520 -52.314 -80.244  0.00  0.00    +0.000 C 
ATOM      7  C   UNL     1     -62.877 -53.306 -80.090  0.00  0.00    +0.000 C 
ATOM      8  C   UNL     1     -61.474 -53.426 -80.806  0.00  0.00    +0.000 C 
ATOM      9  C   UNL     1     -61.787 -48.497 -79.707  0.00  0.00    +0.000 C 
ATOM     10  C   UNL     1     -62.003 -50.409 -78.110  0.00  0.00    +0.000 C 
ATOM     11  C   UNL     1     -63.974 -54.462 -80.336  0.00  0.00    +0.000 C 
ATOM     12  C   UNL     1     -64.845 -51.605 -80.088  0.00  0.00    +0.000 C 
ATOM     13  C   UNL     1     -65.319 -54.302 -79.498  0.00  0.00    +0.000 C 
ATOM     14  C   UNL     1     -60.797 -54.795 -80.725  0.00  0.00    +0.000 C 
ATOM     15  C   UNL     1     -65.885 -52.170 -80.740  0.00  0.00    +0.000 C 
ATOM     16  C   UNL     1     -66.437 -53.453 -80.145  0.00  0.00    +0.000 C 
ATOM     17  C   UNL     1     -63.631 -55.910 -80.008  0.00  0.00    +0.000 C 
ATOM     18  C   UNL     1     -65.749 -55.737 -79.283  0.00  0.00    +0.000 C 
ATOM     19  C   UNL     1     -64.621 -56.651 -79.493  0.00  0.00    +0.000 C 
ATOM     20  C   UNL     1     -64.671 -58.086 -79.145  0.00  0.00    +0.000 C 
ENDROOT
BRANCH   7  21
ATOM     21  O   UNL     1     -62.604 -53.266 -78.683  0.00  0.00    +0.000 OA
ATOM     22  H   UNL     1     -61.628 -53.287 -78.564  0.00  0.00    +0.000 HD
ENDBRANCH   7  21
BRANCH  13  23
ATOM     23  O   UNL     1     -65.055 -53.826 -78.156  0.00  0.00    +0.000 OA
ATOM     24  H   UNL     1     -64.120 -53.532 -78.151  0.00  0.00    +0.000 HD
ENDBRANCH  13  23
BRANCH   3  25
ATOM     25  O   UNL     1     -60.408 -50.273 -81.707  0.00  0.00    +0.000 OA
BRANCH  25  27
ATOM     26  O   UNL     1     -61.032 -51.332 -83.586  0.00  0.00    +0.000 OA
ATOM     27  C   UNL     1     -60.900 -50.275 -82.972  0.00  0.00    +0.000 C 
ATOM     28  C   UNL     1     -61.355 -48.979 -83.571  0.00  0.00    +0.000 C 
ENDBRANCH  25  27
ENDBRANCH   3  25
BRANCH  15  29
ATOM     29  C   UNL     1     -66.139 -51.988 -82.213  0.00  0.00    +0.000 C 
BRANCH  29  30
ATOM     30  O   UNL     1     -66.105 -50.601 -82.501  0.00  0.00    +0.000 OA
ATOM     31  H   UNL     1     -66.729 -50.173 -81.889  0.00  0.00    +0.000 HD
ENDBRANCH  29  30
ENDBRANCH  15  29
BRANCH   6  32
ATOM     32  O   UNL     1     -59.200 -52.445 -80.839  0.00  0.00    +0.000 OA
BRANCH  32  34
ATOM     33  O   UNL     1     -57.905 -52.729 -79.038  0.00  0.00    +0.000 OA
ATOM     34  C   UNL     1     -58.026 -52.303 -80.184  0.00  0.00    +0.000 C 
BRANCH  34  35
ATOM     35  C   UNL     1     -56.872 -51.619 -80.874  0.00  0.00    +0.000 C 
BRANCH  35  36
ATOM     36  C   UNL     1     -55.738 -51.309 -79.904  0.00  0.00    +0.000 C 
BRANCH  36  37
ATOM     37  C   UNL     1     -54.899 -50.085 -80.289  0.00  0.00    +0.000 C 
BRANCH  37  38
ATOM     38  C   UNL     1     -54.538 -49.169 -79.112  0.00  0.00    +0.000 C 
BRANCH  38  39
ATOM     39  C   UNL     1     -55.024 -49.721 -77.768  0.00  0.00    +0.000 C 
BRANCH  39  40
ATOM     40  C   UNL     1     -56.165 -48.909 -77.149  0.00  0.00    +0.000 C 
BRANCH  40  41
ATOM     41  C   UNL     1     -57.479 -49.689 -77.063  0.00  0.00    +0.000 C 
BRANCH  41  42
ATOM     42  C   UNL     1     -58.486 -49.300 -78.149  0.00  0.00    +0.000 C 
BRANCH  42  43
ATOM     43  C   UNL     1     -58.206 -47.982 -78.877  0.00  0.00    +0.000 C 
BRANCH  43  44
ATOM     44  C   UNL     1     -58.090 -48.080 -80.401  0.00  0.00    +0.000 C 
BRANCH  44  45
ATOM     45  C   UNL     1     -57.340 -46.931 -81.082  0.00  0.00    +0.000 C 
BRANCH  45  46
ATOM     46  C   UNL     1     -56.318 -47.341 -82.144  0.00  0.00    +0.000 C 
ATOM     47  C   UNL     1     -55.206 -46.322 -82.340  0.00  0.00    +0.000 C 
ENDBRANCH  45  46
ENDBRANCH  44  45
ENDBRANCH  43  44
ENDBRANCH  42  43
ENDBRANCH  41  42
ENDBRANCH  40  41
ENDBRANCH  39  40
ENDBRANCH  38  39
ENDBRANCH  37  38
ENDBRANCH  36  37
ENDBRANCH  35  36
ENDBRANCH  34  35
ENDBRANCH  32  34
ENDBRANCH   6  32
TORSDOF 20
ENDMDL
MODEL 9
REMARK VINA RESULT:      -4.0      5.056     10.007
REMARK  Name = 27924_Phorbol.pdbqt.pdb
REMARK  26 active torsions:
REMARK  status: ('A' for Active; 'I' for Inactive)
REMARK    1  A    between atoms: O_1  and  C_10
REMARK    2  A    between atoms: O_1  and  C_26
REMARK    3  A    between atoms: O_2  and  C_13
REMARK    4  A    between atoms: O_2  and  C_28
REMARK    5  A    between atoms: O_3  and  C_14
REMARK    6  A    between atoms: O_4  and  C_20
REMARK    7  A    between atoms: O_7  and  C_29
REMARK    8  A    between atoms: C_11  and  C_16
REMARK    9  A    between atoms: C_11  and  C_17
REMARK   10  A    between atoms: C_15  and  C_21
REMARK   11  A    between atoms: C_22  and  C_29
REMARK   12  A    between atoms: C_26  and  C_30
REMARK   13  A    between atoms: C_27  and  C_31
REMARK   14  A    between atoms: C_28  and  C_32
REMARK   15  A    between atoms: C_32  and  C_33
REMARK   16  A    between atoms: C_33  and  C_34
REMARK   17  A    between atoms: C_34  and  C_35
REMARK   18  A    between atoms: C_35  and  C_36
REMARK   19  A    between atoms: C_36  and  C_37
REMARK   20  A    between atoms: C_37  and  C_38
REMARK   21  A    between atoms: C_38  and  C_39
REMARK   22  A    between atoms: C_39  and  C_40
REMARK   23  A    between atoms: C_40  and  C_41
REMARK   24  A    between atoms: C_41  and  C_42
REMARK   25  A    between atoms: C_42  and  C_43
REMARK   26  A    between atoms: C_43  and  C_44
REMARK                            x       y       z     vdW  Elec       q    Type
REMARK                         _______ _______ _______ _____ _____    ______ ____
ROOT
ATOM      1  O   UNL     1     -65.414 -49.736 -10.856  0.00  0.00    +0.000 OA
ATOM      2  C   UNL     1     -64.712 -51.256 -17.752  0.00  0.00    +0.000 C 
ATOM      3  C   UNL     1     -65.932 -51.251 -18.654  0.00  0.00    +0.000 C 
ATOM      4  C   UNL     1     -65.249 -52.587 -18.241  0.00  0.00    +0.000 C 
ATOM      5  C   UNL     1     -64.756 -50.617 -16.396  0.00  0.00    +0.000 C 
ATOM      6  C   UNL     1     -67.250 -50.733 -18.050  0.00  0.00    +0.000 C 
ATOM      7  C   UNL     1     -66.186 -50.293 -15.761  0.00  0.00    +0.000 C 
ATOM      8  C   UNL     1     -66.990 -49.640 -16.954  0.00  0.00    +0.000 C 
ATOM      9  C   UNL     1     -64.339 -53.304 -19.223  0.00  0.00    +0.000 C 
ATOM     10  C   UNL     1     -65.902 -53.559 -17.289  0.00  0.00    +0.000 C 
ATOM     11  C   UNL     1     -65.970 -49.438 -14.412  0.00  0.00    +0.000 C 
ATOM     12  C   UNL     1     -63.787 -51.235 -15.405  0.00  0.00    +0.000 C 
ATOM     13  C   UNL     1     -65.231 -50.215 -13.234  0.00  0.00    +0.000 C 
ATOM     14  C   UNL     1     -68.299 -48.946 -16.577  0.00  0.00    +0.000 C 
ATOM     15  C   UNL     1     -63.115 -50.373 -14.612  0.00  0.00    +0.000 C 
ATOM     16  C   UNL     1     -63.688 -50.147 -13.224  0.00  0.00    +0.000 C 
ATOM     17  C   UNL     1     -67.179 -48.902 -13.656  0.00  0.00    +0.000 C 
ATOM     18  C   UNL     1     -65.833 -49.589 -11.994  0.00  0.00    +0.000 C 
ATOM     19  C   UNL     1     -67.093 -48.910 -12.319  0.00  0.00    +0.000 C 
ATOM     20  C   UNL     1     -68.021 -48.396 -11.290  0.00  0.00    +0.000 C 
ENDROOT
BRANCH   7  21
ATOM     21  O   UNL     1     -66.901 -51.484 -15.404  0.00  0.00    +0.000 OA
ATOM     22  H   UNL     1     -67.078 -51.451 -14.438  0.00  0.00    +0.000 HD
ENDBRANCH   7  21
BRANCH  13  23
ATOM     23  O   UNL     1     -65.663 -51.595 -13.156  0.00  0.00    +0.000 OA
ATOM     24  H   UNL     1     -64.926 -52.131 -13.516  0.00  0.00    +0.000 HD
ENDBRANCH  13  23
BRANCH   3  25
ATOM     25  O   UNL     1     -65.589 -50.660 -19.935  0.00  0.00    +0.000 OA
BRANCH  25  27
ATOM     26  O   UNL     1     -65.192 -48.454 -19.806  0.00  0.00    +0.000 OA
ATOM     27  C   UNL     1     -64.788 -49.577 -20.101  0.00  0.00    +0.000 C 
ATOM     28  C   UNL     1     -63.380 -49.786 -20.570  0.00  0.00    +0.000 C 
ENDBRANCH  25  27
ENDBRANCH   3  25
BRANCH  15  29
ATOM     29  C   UNL     1     -62.260 -49.251 -15.141  0.00  0.00    +0.000 C 
BRANCH  29  30
ATOM     30  O   UNL     1     -61.989 -48.359 -14.074  0.00  0.00    +0.000 OA
ATOM     31  H   UNL     1     -61.020 -48.312 -13.988  0.00  0.00    +0.000 HD
ENDBRANCH  29  30
ENDBRANCH  15  29
BRANCH   6  32
ATOM     32  O   UNL     1     -68.047 -50.173 -19.129  0.00  0.00    +0.000 OA
BRANCH  32  34
ATOM     33  O   UNL     1     -68.840 -51.624 -20.635  0.00  0.00    +0.000 OA
ATOM     34  C   UNL     1     -69.070 -50.797 -19.756  0.00  0.00    +0.000 C 
BRANCH  34  35
ATOM     35  C   UNL     1     -70.489 -50.467 -19.364  0.00  0.00    +0.000 C 
BRANCH  35  36
ATOM     36  C   UNL     1     -71.493 -51.370 -20.072  0.00  0.00    +0.000 C 
BRANCH  36  37
ATOM     37  C   UNL     1     -72.786 -51.609 -19.285  0.00  0.00    +0.000 C 
BRANCH  37  38
ATOM     38  C   UNL     1     -73.652 -52.757 -19.822  0.00  0.00    +0.000 C 
BRANCH  38  39
ATOM     39  C   UNL     1     -73.971 -53.802 -18.748  0.00  0.00    +0.000 C 
BRANCH  39  40
ATOM     40  C   UNL     1     -73.129 -55.076 -18.865  0.00  0.00    +0.000 C 
BRANCH  40  41
ATOM     41  C   UNL     1     -72.719 -55.394 -20.305  0.00  0.00    +0.000 C 
BRANCH  41  42
ATOM     42  C   UNL     1     -73.771 -56.202 -21.070  0.00  0.00    +0.000 C 
BRANCH  42  43
ATOM     43  C   UNL     1     -73.474 -56.451 -22.551  0.00  0.00    +0.000 C 
BRANCH  43  44
ATOM     44  C   UNL     1     -72.986 -57.860 -22.900  0.00  0.00    +0.000 C 
BRANCH  44  45
ATOM     45  C   UNL     1     -72.503 -58.055 -24.341  0.00  0.00    +0.000 C 
BRANCH  45  46
ATOM     46  C   UNL     1     -72.002 -59.458 -24.690  0.00  0.00    +0.000 C 
ATOM     47  C   UNL     1     -72.314 -60.496 -23.623  0.00  0.00    +0.000 C 
ENDBRANCH  45  46
ENDBRANCH  44  45
ENDBRANCH  43  44
ENDBRANCH  42  43
ENDBRANCH  41  42
ENDBRANCH  40  41
ENDBRANCH  39  40
ENDBRANCH  38  39
ENDBRANCH  37  38
ENDBRANCH  36  37
ENDBRANCH  35  36
ENDBRANCH  34  35
ENDBRANCH  32  34
ENDBRANCH   6  32
TORSDOF 20
ENDMDL
