MODEL 1
REMARK VINA RESULT:      -2.8      0.000      0.000
REMARK  Name = 2Methylcholine.pdbqt.pdb
REMARK  3 active torsions:
REMARK  status: ('A' for Active; 'I' for Inactive)
REMARK    1  A    between atoms: C_1  and  N_2
REMARK    2  A    between atoms: C_1  and  C_6
REMARK    3  A    between atoms: C_6  and  O_8
REMARK                            x       y       z     vdW  Elec       q    Type
REMARK                         _______ _______ _______ _____ _____    ______ ____
ROOT
ATOM      1  C   UNL     1     -63.838 -46.749 -59.979  0.00  0.00    +0.000 C 
ENDROOT
BRANCH   1   2
ATOM      2  N   UNL     1     -65.165 -46.762 -59.394  0.00  0.00    +0.000 N 
ATOM      3  C   UNL     1     -65.910 -47.930 -59.874  0.00  0.00    +0.000 C 
ATOM      4  C   UNL     1     -65.067 -46.821 -57.934  0.00  0.00    +0.000 C 
ATOM      5  C   UNL     1     -65.886 -45.546 -59.776  0.00  0.00    +0.000 C 
ENDBRANCH   1   2
BRANCH   1   6
ATOM      6  C   UNL     1     -62.558 -46.708 -60.548  0.00  0.00    +0.000 C 
ATOM      7  C   UNL     1     -61.339 -46.638 -59.709  0.00  0.00    +0.000 C 
BRANCH   6   8
ATOM      8  O   UNL     1     -62.364 -46.730 -61.895  0.00  0.00    +0.000 OA
ATOM      9  H   UNL     1     -61.931 -45.895 -62.158  0.00  0.00    +0.000 HD
ENDBRANCH   6   8
ENDBRANCH   1   6
TORSDOF 3
ENDMDL
MODEL 2
REMARK VINA RESULT:      -2.8      0.022      1.463
REMARK  Name = 2Methylcholine.pdbqt.pdb
REMARK  3 active torsions:
REMARK  status: ('A' for Active; 'I' for Inactive)
REMARK    1  A    between atoms: C_1  and  N_2
REMARK    2  A    between atoms: C_1  and  C_6
REMARK    3  A    between atoms: C_6  and  O_8
REMARK                            x       y       z     vdW  Elec       q    Type
REMARK                         _______ _______ _______ _____ _____    ______ ____
ROOT
ATOM      1  C   UNL     1     -63.833 -46.717 -59.971  0.00  0.00    +0.000 C 
ENDROOT
BRANCH   1   2
ATOM      2  N   UNL     1     -65.165 -46.759 -59.400  0.00  0.00    +0.000 N 
ATOM      3  C   UNL     1     -65.080 -46.827 -57.938  0.00  0.00    +0.000 C 
ATOM      4  C   UNL     1     -65.910 -45.556 -59.783  0.00  0.00    +0.000 C 
ATOM      5  C   UNL     1     -65.878 -47.940 -59.893  0.00  0.00    +0.000 C 
ENDBRANCH   1   2
BRANCH   1   6
ATOM      6  C   UNL     1     -62.553 -46.695 -60.543  0.00  0.00    +0.000 C 
ATOM      7  C   UNL     1     -61.331 -46.633 -59.706  0.00  0.00    +0.000 C 
BRANCH   6   8
ATOM      8  O   UNL     1     -62.362 -46.730 -61.890  0.00  0.00    +0.000 OA
ATOM      9  H   UNL     1     -61.706 -46.045 -62.126  0.00  0.00    +0.000 HD
ENDBRANCH   6   8
ENDBRANCH   1   6
TORSDOF 3
ENDMDL
MODEL 3
REMARK VINA RESULT:      -2.8      1.254      1.978
REMARK  Name = 2Methylcholine.pdbqt.pdb
REMARK  3 active torsions:
REMARK  status: ('A' for Active; 'I' for Inactive)
REMARK    1  A    between atoms: C_1  and  N_2
REMARK    2  A    between atoms: C_1  and  C_6
REMARK    3  A    between atoms: C_6  and  O_8
REMARK                            x       y       z     vdW  Elec       q    Type
REMARK                         _______ _______ _______ _____ _____    ______ ____
ROOT
ATOM      1  C   UNL     1     -63.541 -46.690 -59.635  0.00  0.00    +0.000 C 
ENDROOT
BRANCH   1   2
ATOM      2  N   UNL     1     -64.957 -46.736 -59.327  0.00  0.00    +0.000 N 
ATOM      3  C   UNL     1     -65.602 -45.492 -59.758  0.00  0.00    +0.000 C 
ATOM      4  C   UNL     1     -65.582 -47.866 -60.018  0.00  0.00    +0.000 C 
ATOM      5  C   UNL     1     -65.144 -46.896 -57.883  0.00  0.00    +0.000 C 
ENDBRANCH   1   2
BRANCH   1   6
ATOM      6  C   UNL     1     -62.167 -46.630 -59.911  0.00  0.00    +0.000 C 
ATOM      7  C   UNL     1     -61.660 -46.499 -61.297  0.00  0.00    +0.000 C 
BRANCH   6   8
ATOM      8  O   UNL     1     -61.229 -46.689 -58.926  0.00  0.00    +0.000 OA
ATOM      9  H   UNL     1     -60.357 -46.491 -59.319  0.00  0.00    +0.000 HD
ENDBRANCH   6   8
ENDBRANCH   1   6
TORSDOF 3
ENDMDL
MODEL 4
REMARK VINA RESULT:      -2.7      1.952      3.633
REMARK  Name = 2Methylcholine.pdbqt.pdb
REMARK  3 active torsions:
REMARK  status: ('A' for Active; 'I' for Inactive)
REMARK    1  A    between atoms: C_1  and  N_2
REMARK    2  A    between atoms: C_1  and  C_6
REMARK    3  A    between atoms: C_6  and  O_8
REMARK                            x       y       z     vdW  Elec       q    Type
REMARK                         _______ _______ _______ _____ _____    ______ ____
ROOT
ATOM      1  C   UNL     1     -63.715 -46.712 -59.904  0.00  0.00    +0.000 C 
ENDROOT
BRANCH   1   2
ATOM      2  N   UNL     1     -62.403 -46.101 -59.981  0.00  0.00    +0.000 N 
ATOM      3  C   UNL     1     -62.533 -44.641 -59.992  0.00  0.00    +0.000 C 
ATOM      4  C   UNL     1     -61.596 -46.503 -58.825  0.00  0.00    +0.000 C 
ATOM      5  C   UNL     1     -61.728 -46.530 -61.208  0.00  0.00    +0.000 C 
ENDBRANCH   1   2
BRANCH   1   6
ATOM      6  C   UNL     1     -64.972 -47.328 -59.824  0.00  0.00    +0.000 C 
ATOM      7  C   UNL     1     -65.927 -47.001 -58.739  0.00  0.00    +0.000 C 
BRANCH   6   8
ATOM      8  O   UNL     1     -65.383 -48.255 -60.732  0.00  0.00    +0.000 OA
ATOM      9  H   UNL     1     -65.629 -49.069 -60.251  0.00  0.00    +0.000 HD
ENDBRANCH   6   8
ENDBRANCH   1   6
TORSDOF 3
ENDMDL
MODEL 5
REMARK VINA RESULT:      -2.6     39.209     40.378
REMARK  Name = 2Methylcholine.pdbqt.pdb
REMARK  3 active torsions:
REMARK  status: ('A' for Active; 'I' for Inactive)
REMARK    1  A    between atoms: C_1  and  N_2
REMARK    2  A    between atoms: C_1  and  C_6
REMARK    3  A    between atoms: C_6  and  O_8
REMARK                            x       y       z     vdW  Elec       q    Type
REMARK                         _______ _______ _______ _____ _____    ______ ____
ROOT
ATOM      1  C   UNL     1     -45.008 -61.922 -91.687  0.00  0.00    +0.000 C 
ENDROOT
BRANCH   1   2
ATOM      2  N   UNL     1     -43.715 -62.387 -92.149  0.00  0.00    +0.000 N 
ATOM      3  C   UNL     1     -42.647 -61.657 -91.458  0.00  0.00    +0.000 C 
ATOM      4  C   UNL     1     -43.572 -63.819 -91.878  0.00  0.00    +0.000 C 
ATOM      5  C   UNL     1     -43.594 -62.159 -93.591  0.00  0.00    +0.000 C 
ENDBRANCH   1   2
BRANCH   1   6
ATOM      6  C   UNL     1     -46.265 -61.464 -91.266  0.00  0.00    +0.000 C 
ATOM      7  C   UNL     1     -46.628 -60.029 -91.332  0.00  0.00    +0.000 C 
BRANCH   6   8
ATOM      8  O   UNL     1     -47.215 -62.307 -90.777  0.00  0.00    +0.000 OA
ATOM      9  H   UNL     1     -47.741 -61.825 -90.111  0.00  0.00    +0.000 HD
ENDBRANCH   6   8
ENDBRANCH   1   6
TORSDOF 3
ENDMDL
MODEL 6
REMARK VINA RESULT:      -2.6      9.526      9.952
REMARK  Name = 2Methylcholine.pdbqt.pdb
REMARK  3 active torsions:
REMARK  status: ('A' for Active; 'I' for Inactive)
REMARK    1  A    between atoms: C_1  and  N_2
REMARK    2  A    between atoms: C_1  and  C_6
REMARK    3  A    between atoms: C_6  and  O_8
REMARK                            x       y       z     vdW  Elec       q    Type
REMARK                         _______ _______ _______ _____ _____    ______ ____
ROOT
ATOM      1  C   UNL     1     -60.246 -55.737 -59.101  0.00  0.00    +0.000 C 
ENDROOT
BRANCH   1   2
ATOM      2  N   UNL     1     -61.111 -56.334 -58.102  0.00  0.00    +0.000 N 
ATOM      3  C   UNL     1     -60.745 -57.740 -57.901  0.00  0.00    +0.000 C 
ATOM      4  C   UNL     1     -60.978 -55.616 -56.832  0.00  0.00    +0.000 C 
ATOM      5  C   UNL     1     -62.505 -56.263 -58.548  0.00  0.00    +0.000 C 
ENDBRANCH   1   2
BRANCH   1   6
ATOM      6  C   UNL     1     -59.425 -55.171 -60.086  0.00  0.00    +0.000 C 
ATOM      7  C   UNL     1     -59.787 -53.903 -60.762  0.00  0.00    +0.000 C 
BRANCH   6   8
ATOM      8  O   UNL     1     -58.257 -55.752 -60.475  0.00  0.00    +0.000 OA
ATOM      9  H   UNL     1     -57.517 -55.211 -60.138  0.00  0.00    +0.000 HD
ENDBRANCH   6   8
ENDBRANCH   1   6
TORSDOF 3
ENDMDL
MODEL 7
REMARK VINA RESULT:      -2.5     29.415     30.807
REMARK  Name = 2Methylcholine.pdbqt.pdb
REMARK  3 active torsions:
REMARK  status: ('A' for Active; 'I' for Inactive)
REMARK    1  A    between atoms: C_1  and  N_2
REMARK    2  A    between atoms: C_1  and  C_6
REMARK    3  A    between atoms: C_6  and  O_8
REMARK                            x       y       z     vdW  Elec       q    Type
REMARK                         _______ _______ _______ _____ _____    ______ ____
ROOT
ATOM      1  C   UNL     1     -69.722 -56.544 -31.365  0.00  0.00    +0.000 C 
ENDROOT
BRANCH   1   2
ATOM      2  N   UNL     1     -69.428 -57.518 -32.398  0.00  0.00    +0.000 N 
ATOM      3  C   UNL     1     -70.286 -58.695 -32.232  0.00  0.00    +0.000 C 
ATOM      4  C   UNL     1     -69.665 -56.933 -33.720  0.00  0.00    +0.000 C 
ATOM      5  C   UNL     1     -68.026 -57.932 -32.303  0.00  0.00    +0.000 C 
ENDBRANCH   1   2
BRANCH   1   6
ATOM      6  C   UNL     1     -69.998 -55.620 -30.348  0.00  0.00    +0.000 C 
ATOM      7  C   UNL     1     -70.829 -55.983 -29.175  0.00  0.00    +0.000 C 
BRANCH   6   8
ATOM      8  O   UNL     1     -69.521 -54.346 -30.379  0.00  0.00    +0.000 OA
ATOM      9  H   UNL     1     -68.896 -54.269 -31.125  0.00  0.00    +0.000 HD
ENDBRANCH   6   8
ENDBRANCH   1   6
TORSDOF 3
ENDMDL
MODEL 8
REMARK VINA RESULT:      -2.5     17.996     18.888
REMARK  Name = 2Methylcholine.pdbqt.pdb
REMARK  3 active torsions:
REMARK  status: ('A' for Active; 'I' for Inactive)
REMARK    1  A    between atoms: C_1  and  N_2
REMARK    2  A    between atoms: C_1  and  C_6
REMARK    3  A    between atoms: C_6  and  O_8
REMARK                            x       y       z     vdW  Elec       q    Type
REMARK                         _______ _______ _______ _____ _____    ______ ____
ROOT
ATOM      1  C   UNL     1     -66.550 -60.299 -72.259  0.00  0.00    +0.000 C 
ENDROOT
BRANCH   1   2
ATOM      2  N   UNL     1     -65.682 -61.351 -71.768  0.00  0.00    +0.000 N 
ATOM      3  C   UNL     1     -66.408 -62.624 -71.737  0.00  0.00    +0.000 C 
ATOM      4  C   UNL     1     -64.514 -61.485 -72.643  0.00  0.00    +0.000 C 
ATOM      5  C   UNL     1     -65.229 -61.027 -70.413  0.00  0.00    +0.000 C 
ENDBRANCH   1   2
BRANCH   1   6
ATOM      6  C   UNL     1     -67.375 -59.281 -72.757  0.00  0.00    +0.000 C 
ATOM      7  C   UNL     1     -67.565 -59.082 -74.214  0.00  0.00    +0.000 C 
BRANCH   6   8
ATOM      8  O   UNL     1     -68.043 -58.425 -71.937  0.00  0.00    +0.000 OA
ATOM      9  H   UNL     1     -68.956 -58.754 -71.825  0.00  0.00    +0.000 HD
ENDBRANCH   6   8
ENDBRANCH   1   6
TORSDOF 3
ENDMDL
MODEL 9
REMARK VINA RESULT:      -2.5     39.718     40.832
REMARK  Name = 2Methylcholine.pdbqt.pdb
REMARK  3 active torsions:
REMARK  status: ('A' for Active; 'I' for Inactive)
REMARK    1  A    between atoms: C_1  and  N_2
REMARK    2  A    between atoms: C_1  and  C_6
REMARK    3  A    between atoms: C_6  and  O_8
REMARK                            x       y       z     vdW  Elec       q    Type
REMARK                         _______ _______ _______ _____ _____    ______ ____
ROOT
ATOM      1  C   UNL     1     -44.274 -62.020 -92.185  0.00  0.00    +0.000 C 
ENDROOT
BRANCH   1   2
ATOM      2  N   UNL     1     -44.784 -60.663 -92.165  0.00  0.00    +0.000 N 
ATOM      3  C   UNL     1     -43.932 -59.821 -91.320  0.00  0.00    +0.000 C 
ATOM      4  C   UNL     1     -44.802 -60.116 -93.524  0.00  0.00    +0.000 C 
ATOM      5  C   UNL     1     -46.147 -60.654 -91.628  0.00  0.00    +0.000 C 
ENDBRANCH   1   2
BRANCH   1   6
ATOM      6  C   UNL     1     -43.762 -63.324 -92.222  0.00  0.00    +0.000 C 
ATOM      7  C   UNL     1     -43.126 -63.872 -93.444  0.00  0.00    +0.000 C 
BRANCH   6   8
ATOM      8  O   UNL     1     -43.821 -64.155 -91.146  0.00  0.00    +0.000 OA
ATOM      9  H   UNL     1     -44.747 -64.202 -90.842  0.00  0.00    +0.000 HD
ENDBRANCH   6   8
ENDBRANCH   1   6
TORSDOF 3
ENDMDL
