MODEL 1
REMARK VINA RESULT:      -6.4      0.000      0.000
REMARK  Name = 3035817_K252a.pdbqt.pdb
REMARK  3 active torsions:
REMARK  status: ('A' for Active; 'I' for Inactive)
REMARK    1  A    between atoms: C_3  and  O_7
REMARK    2  A    between atoms: C_3  and  C_9
REMARK    3  A    between atoms: C_9  and  O_11
REMARK                            x       y       z     vdW  Elec       q    Type
REMARK                         _______ _______ _______ _____ _____    ______ ____
ROOT
ATOM      1  O   UNL     1     -70.488 -58.152 -34.487  0.00  0.00    +0.000 OA
ATOM      2  C   UNL     1     -69.876 -59.489 -34.537  0.00  0.00    +0.000 C 
ATOM      3  C   UNL     1     -68.322 -59.209 -34.353  0.00  0.00    +0.000 C 
ATOM      4  C   UNL     1     -69.740 -57.465 -33.515  0.00  0.00    +0.000 C 
ATOM      5  C   UNL     1     -68.411 -57.942 -33.633  0.00  0.00    +0.000 C 
ATOM      6  C   UNL     1     -70.271 -60.069 -35.934  0.00  0.00    +0.000 C 
ATOM      7  N   UNL     1     -70.464 -60.264 -33.426  0.00  0.00    +0.000 N 
ATOM      8  C   UNL     1     -70.953 -59.862 -32.209  0.00  0.00    +0.000 A 
ATOM      9  C   UNL     1     -70.899 -58.580 -31.661  0.00  0.00    +0.000 A 
ATOM     10  C   UNL     1     -71.502 -60.815 -31.345  0.00  0.00    +0.000 A 
ATOM     11  N   UNL     1     -70.306 -57.507 -32.252  0.00  0.00    +0.000 N 
ATOM     12  C   UNL     1     -71.390 -58.461 -30.357  0.00  0.00    +0.000 A 
ATOM     13  C   UNL     1     -70.366 -56.575 -31.201  0.00  0.00    +0.000 A 
ATOM     14  C   UNL     1     -71.046 -57.126 -30.049  0.00  0.00    +0.000 A 
ATOM     15  C   UNL     1     -69.876 -55.259 -31.186  0.00  0.00    +0.000 A 
ATOM     16  C   UNL     1     -71.188 -56.305 -28.913  0.00  0.00    +0.000 A 
ATOM     17  C   UNL     1     -70.697 -55.000 -28.918  0.00  0.00    +0.000 A 
ATOM     18  C   UNL     1     -70.051 -54.490 -30.035  0.00  0.00    +0.000 A 
ATOM     19  C   UNL     1     -71.963 -59.407 -29.483  0.00  0.00    +0.000 A 
ATOM     20  C   UNL     1     -72.021 -60.715 -30.047  0.00  0.00    +0.000 A 
ATOM     21  C   UNL     1     -72.474 -59.416 -28.133  0.00  0.00    +0.000 C 
ATOM     22  C   UNL     1     -72.596 -61.605 -29.001  0.00  0.00    +0.000 C 
ATOM     23  N   UNL     1     -72.816 -60.764 -27.966  0.00  0.00    +0.000 N 
ATOM     24  H   UNL     1     -73.210 -61.080 -27.091  0.00  0.00    +0.000 HD
ATOM     25  O   UNL     1     -72.620 -58.557 -27.276  0.00  0.00    +0.000 OA
ATOM     26  C   UNL     1     -71.305 -62.008 -32.064  0.00  0.00    +0.000 A 
ATOM     27  C   UNL     1     -70.649 -61.665 -33.306  0.00  0.00    +0.000 A 
ATOM     28  C   UNL     1     -71.570 -63.367 -31.797  0.00  0.00    +0.000 A 
ATOM     29  C   UNL     1     -70.275 -62.681 -34.203  0.00  0.00    +0.000 A 
ATOM     30  C   UNL     1     -70.561 -64.010 -33.893  0.00  0.00    +0.000 A 
ATOM     31  C   UNL     1     -71.204 -64.350 -32.714  0.00  0.00    +0.000 A 
ENDROOT
BRANCH   3  32
ATOM     32  O   UNL     1     -67.630 -60.163 -33.534  0.00  0.00    +0.000 OA
ATOM     33  H   UNL     1     -67.958 -61.055 -33.784  0.00  0.00    +0.000 HD
ENDBRANCH   3  32
BRANCH   3  34
ATOM     34  C   UNL     1     -67.613 -59.046 -35.696  0.00  0.00    +0.000 C 
ATOM     35  O   UNL     1     -67.098 -60.018 -36.254  0.00  0.00    +0.000 OA
BRANCH  34  36
ATOM     36  O   UNL     1     -67.601 -57.741 -36.106  0.00  0.00    +0.000 OA
ATOM     37  C   UNL     1     -68.024 -57.465 -37.413  0.00  0.00    +0.000 C 
ENDBRANCH  34  36
ENDBRANCH   3  34
TORSDOF 3
ENDMDL
MODEL 2
REMARK VINA RESULT:      -6.4     22.077     26.234
REMARK  Name = 3035817_K252a.pdbqt.pdb
REMARK  3 active torsions:
REMARK  status: ('A' for Active; 'I' for Inactive)
REMARK    1  A    between atoms: C_3  and  O_7
REMARK    2  A    between atoms: C_3  and  C_9
REMARK    3  A    between atoms: C_9  and  O_11
REMARK                            x       y       z     vdW  Elec       q    Type
REMARK                         _______ _______ _______ _____ _____    ______ ____
ROOT
ATOM      1  O   UNL     1     -62.241 -58.914 -55.344  0.00  0.00    +0.000 OA
ATOM      2  C   UNL     1     -62.177 -58.272 -56.667  0.00  0.00    +0.000 C 
ATOM      3  C   UNL     1     -63.033 -56.944 -56.494  0.00  0.00    +0.000 C 
ATOM      4  C   UNL     1     -62.186 -57.841 -54.437  0.00  0.00    +0.000 C 
ATOM      5  C   UNL     1     -62.878 -56.770 -55.052  0.00  0.00    +0.000 C 
ATOM      6  C   UNL     1     -62.789 -59.316 -57.659  0.00  0.00    +0.000 C 
ATOM      7  N   UNL     1     -60.749 -58.014 -56.942  0.00  0.00    +0.000 N 
ATOM      8  C   UNL     1     -59.700 -57.768 -56.093  0.00  0.00    +0.000 A 
ATOM      9  C   UNL     1     -59.761 -57.577 -54.712  0.00  0.00    +0.000 A 
ATOM     10  C   UNL     1     -58.418 -57.596 -56.624  0.00  0.00    +0.000 A 
ATOM     11  N   UNL     1     -60.907 -57.573 -53.978  0.00  0.00    +0.000 N 
ATOM     12  C   UNL     1     -58.550 -57.246 -54.096  0.00  0.00    +0.000 A 
ATOM     13  C   UNL     1     -60.409 -57.142 -52.735  0.00  0.00    +0.000 A 
ATOM     14  C   UNL     1     -58.974 -56.964 -52.779  0.00  0.00    +0.000 A 
ATOM     15  C   UNL     1     -61.129 -56.907 -51.552  0.00  0.00    +0.000 A 
ATOM     16  C   UNL     1     -58.328 -56.537 -51.601  0.00  0.00    +0.000 A 
ATOM     17  C   UNL     1     -59.059 -56.311 -50.436  0.00  0.00    +0.000 A 
ATOM     18  C   UNL     1     -60.435 -56.492 -50.416  0.00  0.00    +0.000 A 
ATOM     19  C   UNL     1     -57.248 -57.088 -54.615  0.00  0.00    +0.000 A 
ATOM     20  C   UNL     1     -57.189 -57.288 -56.025  0.00  0.00    +0.000 A 
ATOM     21  C   UNL     1     -55.948 -56.730 -54.099  0.00  0.00    +0.000 C 
ATOM     22  C   UNL     1     -55.778 -57.041 -56.430  0.00  0.00    +0.000 C 
ATOM     23  N   UNL     1     -55.169 -56.737 -55.263  0.00  0.00    +0.000 N 
ATOM     24  H   UNL     1     -54.184 -56.516 -55.211  0.00  0.00    +0.000 HD
ATOM     25  O   UNL     1     -55.520 -56.471 -52.984  0.00  0.00    +0.000 OA
ATOM     26  C   UNL     1     -58.660 -57.691 -58.006  0.00  0.00    +0.000 A 
ATOM     27  C   UNL     1     -60.077 -57.913 -58.186  0.00  0.00    +0.000 A 
ATOM     28  C   UNL     1     -57.846 -57.577 -59.152  0.00  0.00    +0.000 A 
ATOM     29  C   UNL     1     -60.613 -57.991 -59.483  0.00  0.00    +0.000 A 
ATOM     30  C   UNL     1     -59.766 -57.874 -60.585  0.00  0.00    +0.000 A 
ATOM     31  C   UNL     1     -58.404 -57.676 -60.426  0.00  0.00    +0.000 A 
ENDROOT
BRANCH   3  32
ATOM     32  O   UNL     1     -62.500 -55.792 -57.163  0.00  0.00    +0.000 OA
ATOM     33  H   UNL     1     -61.814 -56.109 -57.791  0.00  0.00    +0.000 HD
ENDBRANCH   3  32
BRANCH   3  34
ATOM     34  C   UNL     1     -64.494 -57.158 -56.882  0.00  0.00    +0.000 C 
ATOM     35  O   UNL     1     -65.230 -57.863 -56.187  0.00  0.00    +0.000 OA
BRANCH  34  36
ATOM     36  O   UNL     1     -64.802 -56.533 -58.059  0.00  0.00    +0.000 OA
ATOM     37  C   UNL     1     -65.981 -55.777 -58.108  0.00  0.00    +0.000 C 
ENDBRANCH  34  36
ENDBRANCH   3  34
TORSDOF 3
ENDMDL
MODEL 3
REMARK VINA RESULT:      -6.4     23.742     28.104
REMARK  Name = 3035817_K252a.pdbqt.pdb
REMARK  3 active torsions:
REMARK  status: ('A' for Active; 'I' for Inactive)
REMARK    1  A    between atoms: C_3  and  O_7
REMARK    2  A    between atoms: C_3  and  C_9
REMARK    3  A    between atoms: C_9  and  O_11
REMARK                            x       y       z     vdW  Elec       q    Type
REMARK                         _______ _______ _______ _____ _____    ______ ____
ROOT
ATOM      1  O   UNL     1     -64.926 -45.465 -55.949  0.00  0.00    +0.000 OA
ATOM      2  C   UNL     1     -65.111 -45.386 -57.406  0.00  0.00    +0.000 C 
ATOM      3  C   UNL     1     -63.785 -46.030 -58.000  0.00  0.00    +0.000 C 
ATOM      4  C   UNL     1     -64.278 -46.697 -55.749  0.00  0.00    +0.000 C 
ATOM      5  C   UNL     1     -63.428 -46.880 -56.867  0.00  0.00    +0.000 C 
ATOM      6  C   UNL     1     -65.289 -43.863 -57.715  0.00  0.00    +0.000 C 
ATOM      7  N   UNL     1     -66.328 -46.163 -57.720  0.00  0.00    +0.000 N 
ATOM      8  C   UNL     1     -66.891 -47.244 -57.090  0.00  0.00    +0.000 A 
ATOM      9  C   UNL     1     -66.357 -47.971 -56.026  0.00  0.00    +0.000 A 
ATOM     10  C   UNL     1     -68.090 -47.770 -57.580  0.00  0.00    +0.000 A 
ATOM     11  N   UNL     1     -65.146 -47.734 -55.452  0.00  0.00    +0.000 N 
ATOM     12  C   UNL     1     -67.096 -49.092 -55.632  0.00  0.00    +0.000 A 
ATOM     13  C   UNL     1     -65.042 -48.855 -54.610  0.00  0.00    +0.000 A 
ATOM     14  C   UNL     1     -66.229 -49.679 -54.685  0.00  0.00    +0.000 A 
ATOM     15  C   UNL     1     -63.977 -49.202 -53.763  0.00  0.00    +0.000 A 
ATOM     16  C   UNL     1     -66.274 -50.842 -53.890  0.00  0.00    +0.000 A 
ATOM     17  C   UNL     1     -65.208 -51.168 -53.053  0.00  0.00    +0.000 A 
ATOM     18  C   UNL     1     -64.080 -50.361 -52.994  0.00  0.00    +0.000 A 
ATOM     19  C   UNL     1     -68.314 -49.623 -56.104  0.00  0.00    +0.000 A 
ATOM     20  C   UNL     1     -68.858 -48.875 -57.188  0.00  0.00    +0.000 A 
ATOM     21  C   UNL     1     -69.148 -50.763 -55.806  0.00  0.00    +0.000 C 
ATOM     22  C   UNL     1     -70.103 -49.577 -57.607  0.00  0.00    +0.000 C 
ATOM     23  N   UNL     1     -70.168 -50.625 -56.756  0.00  0.00    +0.000 N 
ATOM     24  H   UNL     1     -70.919 -51.301 -56.791  0.00  0.00    +0.000 HD
ATOM     25  O   UNL     1     -69.090 -51.665 -54.984  0.00  0.00    +0.000 OA
ATOM     26  C   UNL     1     -68.323 -46.964 -58.709  0.00  0.00    +0.000 A 
ATOM     27  C   UNL     1     -67.235 -46.017 -58.799  0.00  0.00    +0.000 A 
ATOM     28  C   UNL     1     -69.319 -46.941 -59.707  0.00  0.00    +0.000 A 
ATOM     29  C   UNL     1     -67.180 -45.116 -59.877  0.00  0.00    +0.000 A 
ATOM     30  C   UNL     1     -68.191 -45.131 -60.838  0.00  0.00    +0.000 A 
ATOM     31  C   UNL     1     -69.247 -46.024 -60.754  0.00  0.00    +0.000 A 
ENDROOT
BRANCH   3  32
ATOM     32  O   UNL     1     -63.981 -46.856 -59.158  0.00  0.00    +0.000 OA
ATOM     33  H   UNL     1     -63.789 -46.303 -59.947  0.00  0.00    +0.000 HD
ENDBRANCH   3  32
BRANCH   3  34
ATOM     34  C   UNL     1     -62.716 -44.975 -58.273  0.00  0.00    +0.000 C 
ATOM     35  O   UNL     1     -62.644 -44.427 -59.376  0.00  0.00    +0.000 OA
BRANCH  34  36
ATOM     36  O   UNL     1     -61.890 -44.802 -57.196  0.00  0.00    +0.000 OA
ATOM     37  C   UNL     1     -61.765 -43.508 -56.673  0.00  0.00    +0.000 C 
ENDBRANCH  34  36
ENDBRANCH   3  34
TORSDOF 3
ENDMDL
MODEL 4
REMARK VINA RESULT:      -6.3     21.596     25.778
REMARK  Name = 3035817_K252a.pdbqt.pdb
REMARK  3 active torsions:
REMARK  status: ('A' for Active; 'I' for Inactive)
REMARK    1  A    between atoms: C_3  and  O_7
REMARK    2  A    between atoms: C_3  and  C_9
REMARK    3  A    between atoms: C_9  and  O_11
REMARK                            x       y       z     vdW  Elec       q    Type
REMARK                         _______ _______ _______ _____ _____    ______ ____
ROOT
ATOM      1  O   UNL     1     -57.769 -58.722 -55.327  0.00  0.00    +0.000 OA
ATOM      2  C   UNL     1     -57.839 -58.148 -53.974  0.00  0.00    +0.000 C 
ATOM      3  C   UNL     1     -56.896 -56.871 -54.045  0.00  0.00    +0.000 C 
ATOM      4  C   UNL     1     -57.724 -57.601 -56.176  0.00  0.00    +0.000 C 
ATOM      5  C   UNL     1     -56.989 -56.611 -55.480  0.00  0.00    +0.000 C 
ATOM      6  C   UNL     1     -57.330 -59.280 -53.022  0.00  0.00    +0.000 C 
ATOM      7  N   UNL     1     -59.258 -57.814 -53.732  0.00  0.00    +0.000 N 
ATOM      8  C   UNL     1     -60.258 -57.456 -54.600  0.00  0.00    +0.000 A 
ATOM      9  C   UNL     1     -60.135 -57.197 -55.966  0.00  0.00    +0.000 A 
ATOM     10  C   UNL     1     -61.545 -57.230 -54.102  0.00  0.00    +0.000 A 
ATOM     11  N   UNL     1     -58.966 -57.228 -56.660  0.00  0.00    +0.000 N 
ATOM     12  C   UNL     1     -61.301 -56.756 -56.602  0.00  0.00    +0.000 A 
ATOM     13  C   UNL     1     -59.391 -56.701 -57.893  0.00  0.00    +0.000 A 
ATOM     14  C   UNL     1     -60.812 -56.434 -57.887  0.00  0.00    +0.000 A 
ATOM     15  C   UNL     1     -58.616 -56.451 -59.037  0.00  0.00    +0.000 A 
ATOM     16  C   UNL     1     -61.388 -55.904 -59.059  0.00  0.00    +0.000 A 
ATOM     17  C   UNL     1     -60.603 -55.664 -60.186  0.00  0.00    +0.000 A 
ATOM     18  C   UNL     1     -59.241 -55.932 -60.171  0.00  0.00    +0.000 A 
ATOM     19  C   UNL     1     -62.608 -56.543 -56.117  0.00  0.00    +0.000 A 
ATOM     20  C   UNL     1     -62.730 -56.812 -54.723  0.00  0.00    +0.000 A 
ATOM     21  C   UNL     1     -63.863 -56.075 -56.655  0.00  0.00    +0.000 C 
ATOM     22  C   UNL     1     -64.137 -56.497 -54.351  0.00  0.00    +0.000 C 
ATOM     23  N   UNL     1     -64.683 -56.093 -55.519  0.00  0.00    +0.000 N 
ATOM     24  H   UNL     1     -65.650 -55.807 -55.590  0.00  0.00    +0.000 HD
ATOM     25  O   UNL     1     -64.234 -55.731 -57.767  0.00  0.00    +0.000 OA
ATOM     26  C   UNL     1     -61.360 -57.413 -52.720  0.00  0.00    +0.000 A 
ATOM     27  C   UNL     1     -59.967 -57.736 -52.506  0.00  0.00    +0.000 A 
ATOM     28  C   UNL     1     -62.205 -57.308 -51.596  0.00  0.00    +0.000 A 
ATOM     29  C   UNL     1     -59.483 -57.916 -51.199  0.00  0.00    +0.000 A 
ATOM     30  C   UNL     1     -60.360 -57.803 -50.120  0.00  0.00    +0.000 A 
ATOM     31  C   UNL     1     -61.701 -57.510 -50.313  0.00  0.00    +0.000 A 
ENDROOT
BRANCH   3  32
ATOM     32  O   UNL     1     -57.380 -55.723 -53.332  0.00  0.00    +0.000 OA
ATOM     33  H   UNL     1     -57.836 -56.051 -52.525  0.00  0.00    +0.000 HD
ENDBRANCH   3  32
BRANCH   3  34
ATOM     34  C   UNL     1     -55.467 -57.198 -53.623  0.00  0.00    +0.000 C 
ATOM     35  O   UNL     1     -54.701 -57.775 -54.399  0.00  0.00    +0.000 OA
BRANCH  34  36
ATOM     36  O   UNL     1     -55.224 -56.826 -52.329  0.00  0.00    +0.000 OA
ATOM     37  C   UNL     1     -54.327 -57.604 -51.584  0.00  0.00    +0.000 C 
ENDBRANCH  34  36
ENDBRANCH   3  34
TORSDOF 3
ENDMDL
MODEL 5
REMARK VINA RESULT:      -6.3     38.226     42.288
REMARK  Name = 3035817_K252a.pdbqt.pdb
REMARK  3 active torsions:
REMARK  status: ('A' for Active; 'I' for Inactive)
REMARK    1  A    between atoms: C_3  and  O_7
REMARK    2  A    between atoms: C_3  and  C_9
REMARK    3  A    between atoms: C_9  and  O_11
REMARK                            x       y       z     vdW  Elec       q    Type
REMARK                         _______ _______ _______ _____ _____    ______ ____
ROOT
ATOM      1  O   UNL     1     -66.218 -62.827 -73.658  0.00  0.00    +0.000 OA
ATOM      2  C   UNL     1     -66.643 -62.237 -72.378  0.00  0.00    +0.000 C 
ATOM      3  C   UNL     1     -65.338 -61.513 -71.833  0.00  0.00    +0.000 C 
ATOM      4  C   UNL     1     -65.344 -61.871 -74.205  0.00  0.00    +0.000 C 
ATOM      5  C   UNL     1     -64.663 -61.287 -73.109  0.00  0.00    +0.000 C 
ATOM      6  C   UNL     1     -67.128 -63.444 -71.511  0.00  0.00    +0.000 C 
ATOM      7  N   UNL     1     -67.742 -61.300 -72.691  0.00  0.00    +0.000 N 
ATOM      8  C   UNL     1     -68.002 -60.565 -73.820  0.00  0.00    +0.000 A 
ATOM      9  C   UNL     1     -67.189 -60.433 -74.946  0.00  0.00    +0.000 A 
ATOM     10  C   UNL     1     -69.156 -59.775 -73.868  0.00  0.00    +0.000 A 
ATOM     11  N   UNL     1     -65.961 -61.002 -75.088  0.00  0.00    +0.000 N 
ATOM     12  C   UNL     1     -67.651 -59.542 -75.921  0.00  0.00    +0.000 A 
ATOM     13  C   UNL     1     -65.533 -60.382 -76.276  0.00  0.00    +0.000 A 
ATOM     14  C   UNL     1     -66.556 -59.512 -76.812  0.00  0.00    +0.000 A 
ATOM     15  C   UNL     1     -64.303 -60.540 -76.935  0.00  0.00    +0.000 A 
ATOM     16  C   UNL     1     -66.273 -58.822 -78.007  0.00  0.00    +0.000 A 
ATOM     17  C   UNL     1     -65.047 -58.992 -78.649  0.00  0.00    +0.000 A 
ATOM     18  C   UNL     1     -64.081 -59.836 -78.119  0.00  0.00    +0.000 A 
ATOM     19  C   UNL     1     -68.819 -58.755 -75.992  0.00  0.00    +0.000 A 
ATOM     20  C   UNL     1     -69.649 -58.896 -74.842  0.00  0.00    +0.000 A 
ATOM     21  C   UNL     1     -69.385 -57.797 -76.911  0.00  0.00    +0.000 C 
ATOM     22  C   UNL     1     -70.804 -57.977 -75.037  0.00  0.00    +0.000 C 
ATOM     23  N   UNL     1     -70.552 -57.412 -76.238  0.00  0.00    +0.000 N 
ATOM     24  H   UNL     1     -71.171 -56.729 -76.652  0.00  0.00    +0.000 HD
ATOM     25  O   UNL     1     -69.042 -57.361 -78.000  0.00  0.00    +0.000 OA
ATOM     26  C   UNL     1     -69.701 -59.976 -72.587  0.00  0.00    +0.000 A 
ATOM     27  C   UNL     1     -68.821 -60.875 -71.876  0.00  0.00    +0.000 A 
ATOM     28  C   UNL     1     -70.832 -59.469 -71.914  0.00  0.00    +0.000 A 
ATOM     29  C   UNL     1     -69.095 -61.208 -70.537  0.00  0.00    +0.000 A 
ATOM     30  C   UNL     1     -70.227 -60.682 -69.916  0.00  0.00    +0.000 A 
ATOM     31  C   UNL     1     -71.087 -59.831 -70.593  0.00  0.00    +0.000 A 
ENDROOT
BRANCH   3  32
ATOM     32  O   UNL     1     -65.570 -60.247 -71.198  0.00  0.00    +0.000 OA
ATOM     33  H   UNL     1     -66.290 -60.378 -70.541  0.00  0.00    +0.000 HD
ENDBRANCH   3  32
BRANCH   3  34
ATOM     34  C   UNL     1     -64.524 -62.427 -70.920  0.00  0.00    +0.000 C 
ATOM     35  O   UNL     1     -64.733 -62.444 -69.704  0.00  0.00    +0.000 OA
BRANCH  34  36
ATOM     36  O   UNL     1     -63.569 -63.116 -71.614  0.00  0.00    +0.000 OA
ATOM     37  C   UNL     1     -63.577 -64.515 -71.521  0.00  0.00    +0.000 C 
ENDBRANCH  34  36
ENDBRANCH   3  34
TORSDOF 3
ENDMDL
MODEL 6
REMARK VINA RESULT:      -6.3     45.146     48.227
REMARK  Name = 3035817_K252a.pdbqt.pdb
REMARK  3 active torsions:
REMARK  status: ('A' for Active; 'I' for Inactive)
REMARK    1  A    between atoms: C_3  and  O_7
REMARK    2  A    between atoms: C_3  and  C_9
REMARK    3  A    between atoms: C_9  and  O_11
REMARK                            x       y       z     vdW  Elec       q    Type
REMARK                         _______ _______ _______ _____ _____    ______ ____
ROOT
ATOM      1  O   UNL     1     -65.877 -55.370 -81.103  0.00  0.00    +0.000 OA
ATOM      2  C   UNL     1     -64.532 -54.783 -80.999  0.00  0.00    +0.000 C 
ATOM      3  C   UNL     1     -64.634 -53.803 -79.752  0.00  0.00    +0.000 C 
ATOM      4  C   UNL     1     -66.282 -55.546 -79.768  0.00  0.00    +0.000 C 
ATOM      5  C   UNL     1     -65.728 -54.462 -79.043  0.00  0.00    +0.000 C 
ATOM      6  C   UNL     1     -64.289 -54.069 -82.369  0.00  0.00    +0.000 C 
ATOM      7  N   UNL     1     -63.597 -55.906 -80.784  0.00  0.00    +0.000 N 
ATOM      8  C   UNL     1     -63.779 -57.124 -80.181  0.00  0.00    +0.000 A 
ATOM      9  C   UNL     1     -64.911 -57.563 -79.492  0.00  0.00    +0.000 A 
ATOM     10  C   UNL     1     -62.719 -58.035 -80.149  0.00  0.00    +0.000 A 
ATOM     11  N   UNL     1     -66.028 -56.816 -79.278  0.00  0.00    +0.000 N 
ATOM     12  C   UNL     1     -64.799 -58.820 -78.889  0.00  0.00    +0.000 A 
ATOM     13  C   UNL     1     -66.724 -57.652 -78.388  0.00  0.00    +0.000 A 
ATOM     14  C   UNL     1     -66.007 -58.888 -78.160  0.00  0.00    +0.000 A 
ATOM     15  C   UNL     1     -67.962 -57.414 -77.768  0.00  0.00    +0.000 A 
ATOM     16  C   UNL     1     -66.584 -59.833 -77.289  0.00  0.00    +0.000 A 
ATOM     17  C   UNL     1     -67.815 -59.579 -76.685  0.00  0.00    +0.000 A 
ATOM     18  C   UNL     1     -68.488 -58.389 -76.921  0.00  0.00    +0.000 A 
ATOM     19  C   UNL     1     -63.745 -59.756 -78.865  0.00  0.00    +0.000 A 
ATOM     20  C   UNL     1     -62.592 -59.307 -79.572  0.00  0.00    +0.000 A 
ATOM     21  C   UNL     1     -63.502 -61.048 -78.269  0.00  0.00    +0.000 C 
ATOM     22  C   UNL     1     -61.558 -60.366 -79.417  0.00  0.00    +0.000 C 
ATOM     23  N   UNL     1     -62.182 -61.301 -78.666  0.00  0.00    +0.000 N 
ATOM     24  H   UNL     1     -61.727 -62.159 -78.388  0.00  0.00    +0.000 HD
ATOM     25  O   UNL     1     -64.174 -61.809 -77.589  0.00  0.00    +0.000 OA
ATOM     26  C   UNL     1     -61.688 -57.305 -80.766  0.00  0.00    +0.000 A 
ATOM     27  C   UNL     1     -62.223 -56.009 -81.118  0.00  0.00    +0.000 A 
ATOM     28  C   UNL     1     -60.331 -57.569 -81.044  0.00  0.00    +0.000 A 
ATOM     29  C   UNL     1     -61.386 -55.042 -81.703  0.00  0.00    +0.000 A 
ATOM     30  C   UNL     1     -60.051 -55.353 -81.959  0.00  0.00    +0.000 A 
ATOM     31  C   UNL     1     -59.531 -56.597 -81.641  0.00  0.00    +0.000 A 
ENDROOT
BRANCH   3  32
ATOM     32  O   UNL     1     -63.475 -53.782 -78.905  0.00  0.00    +0.000 OA
ATOM     33  H   UNL     1     -62.685 -53.791 -79.489  0.00  0.00    +0.000 HD
ENDBRANCH   3  32
BRANCH   3  34
ATOM     34  C   UNL     1     -65.010 -52.385 -80.175  0.00  0.00    +0.000 C 
ATOM     35  O   UNL     1     -64.134 -51.546 -80.403  0.00  0.00    +0.000 OA
BRANCH  34  36
ATOM     36  O   UNL     1     -66.365 -52.206 -80.198  0.00  0.00    +0.000 OA
ATOM     37  C   UNL     1     -66.956 -51.857 -81.420  0.00  0.00    +0.000 C 
ENDBRANCH  34  36
ENDBRANCH   3  34
TORSDOF 3
ENDMDL
MODEL 7
REMARK VINA RESULT:      -6.3     31.830     35.934
REMARK  Name = 3035817_K252a.pdbqt.pdb
REMARK  3 active torsions:
REMARK  status: ('A' for Active; 'I' for Inactive)
REMARK    1  A    between atoms: C_3  and  O_7
REMARK    2  A    between atoms: C_3  and  C_9
REMARK    3  A    between atoms: C_9  and  O_11
REMARK                            x       y       z     vdW  Elec       q    Type
REMARK                         _______ _______ _______ _____ _____    ______ ____
ROOT
ATOM      1  O   UNL     1     -52.295 -56.719 -64.009  0.00  0.00    +0.000 OA
ATOM      2  C   UNL     1     -53.056 -56.386 -62.794  0.00  0.00    +0.000 C 
ATOM      3  C   UNL     1     -53.591 -54.914 -63.065  0.00  0.00    +0.000 C 
ATOM      4  C   UNL     1     -53.038 -56.139 -65.052  0.00  0.00    +0.000 C 
ATOM      5  C   UNL     1     -53.590 -54.946 -64.526  0.00  0.00    +0.000 C 
ATOM      6  C   UNL     1     -52.026 -56.497 -61.622  0.00  0.00    +0.000 C 
ATOM      7  N   UNL     1     -54.135 -57.388 -62.685  0.00  0.00    +0.000 N 
ATOM      8  C   UNL     1     -54.804 -58.098 -63.649  0.00  0.00    +0.000 A 
ATOM      9  C   UNL     1     -54.700 -57.945 -65.032  0.00  0.00    +0.000 A 
ATOM     10  C   UNL     1     -55.771 -59.031 -63.262  0.00  0.00    +0.000 A 
ATOM     11  N   UNL     1     -53.920 -57.019 -65.655  0.00  0.00    +0.000 N 
ATOM     12  C   UNL     1     -55.569 -58.734 -65.793  0.00  0.00    +0.000 A 
ATOM     13  C   UNL     1     -54.354 -57.177 -66.983  0.00  0.00    +0.000 A 
ATOM     14  C   UNL     1     -55.336 -58.234 -67.092  0.00  0.00    +0.000 A 
ATOM     15  C   UNL     1     -53.935 -56.464 -68.118  0.00  0.00    +0.000 A 
ATOM     16  C   UNL     1     -55.863 -58.513 -68.369  0.00  0.00    +0.000 A 
ATOM     17  C   UNL     1     -55.433 -57.795 -69.484  0.00  0.00    +0.000 A 
ATOM     18  C   UNL     1     -54.487 -56.788 -69.357  0.00  0.00    +0.000 A 
ATOM     19  C   UNL     1     -56.533 -59.692 -65.418  0.00  0.00    +0.000 A 
ATOM     20  C   UNL     1     -56.634 -59.849 -64.004  0.00  0.00    +0.000 A 
ATOM     21  C   UNL     1     -57.491 -60.538 -66.090  0.00  0.00    +0.000 C 
ATOM     22  C   UNL     1     -57.715 -60.844 -63.763  0.00  0.00    +0.000 C 
ATOM     23  N   UNL     1     -58.124 -61.166 -65.010  0.00  0.00    +0.000 N 
ATOM     24  H   UNL     1     -58.864 -61.833 -65.178  0.00  0.00    +0.000 HD
ATOM     25  O   UNL     1     -57.767 -60.738 -67.263  0.00  0.00    +0.000 OA
ATOM     26  C   UNL     1     -55.776 -58.884 -61.864  0.00  0.00    +0.000 A 
ATOM     27  C   UNL     1     -54.805 -57.866 -61.530  0.00  0.00    +0.000 A 
ATOM     28  C   UNL     1     -56.522 -59.468 -60.820  0.00  0.00    +0.000 A 
ATOM     29  C   UNL     1     -54.639 -57.470 -60.191  0.00  0.00    +0.000 A 
ATOM     30  C   UNL     1     -55.401 -58.080 -59.195  0.00  0.00    +0.000 A 
ATOM     31  C   UNL     1     -56.323 -59.067 -59.500  0.00  0.00    +0.000 A 
ENDROOT
BRANCH   3  32
ATOM     32  O   UNL     1     -54.928 -54.665 -62.606  0.00  0.00    +0.000 OA
ATOM     33  H   UNL     1     -54.889 -53.894 -61.998  0.00  0.00    +0.000 HD
ENDBRANCH   3  32
BRANCH   3  34
ATOM     34  C   UNL     1     -52.635 -53.854 -62.523  0.00  0.00    +0.000 C 
ATOM     35  O   UNL     1     -51.534 -53.676 -63.051  0.00  0.00    +0.000 OA
BRANCH  34  36
ATOM     36  O   UNL     1     -53.143 -53.234 -61.416  0.00  0.00    +0.000 OA
ATOM     37  C   UNL     1     -52.319 -53.140 -60.286  0.00  0.00    +0.000 C 
ENDBRANCH  34  36
ENDBRANCH   3  34
TORSDOF 3
ENDMDL
MODEL 8
REMARK VINA RESULT:      -6.2     27.973     33.428
REMARK  Name = 3035817_K252a.pdbqt.pdb
REMARK  3 active torsions:
REMARK  status: ('A' for Active; 'I' for Inactive)
REMARK    1  A    between atoms: C_3  and  O_7
REMARK    2  A    between atoms: C_3  and  C_9
REMARK    3  A    between atoms: C_9  and  O_11
REMARK                            x       y       z     vdW  Elec       q    Type
REMARK                         _______ _______ _______ _____ _____    ______ ____
ROOT
ATOM      1  O   UNL     1     -57.025 -58.978 -60.017  0.00  0.00    +0.000 OA
ATOM      2  C   UNL     1     -58.471 -59.084 -60.272  0.00  0.00    +0.000 C 
ATOM      3  C   UNL     1     -59.015 -57.611 -60.030  0.00  0.00    +0.000 C 
ATOM      4  C   UNL     1     -56.673 -57.721 -60.540  0.00  0.00    +0.000 C 
ATOM      5  C   UNL     1     -57.784 -56.874 -60.308  0.00  0.00    +0.000 C 
ATOM      6  C   UNL     1     -58.991 -60.146 -59.248  0.00  0.00    +0.000 C 
ATOM      7  N   UNL     1     -58.620 -59.539 -61.669  0.00  0.00    +0.000 N 
ATOM      8  C   UNL     1     -57.819 -59.350 -62.766  0.00  0.00    +0.000 A 
ATOM      9  C   UNL     1     -56.681 -58.547 -62.850  0.00  0.00    +0.000 A 
ATOM     10  C   UNL     1     -58.180 -59.936 -63.984  0.00  0.00    +0.000 A 
ATOM     11  N   UNL     1     -56.195 -57.779 -61.838  0.00  0.00    +0.000 N 
ATOM     12  C   UNL     1     -56.100 -58.457 -64.120  0.00  0.00    +0.000 A 
ATOM     13  C   UNL     1     -55.203 -57.055 -62.523  0.00  0.00    +0.000 A 
ATOM     14  C   UNL     1     -55.111 -57.472 -63.905  0.00  0.00    +0.000 A 
ATOM     15  C   UNL     1     -54.356 -56.057 -62.014  0.00  0.00    +0.000 A 
ATOM     16  C   UNL     1     -54.154 -56.837 -64.722  0.00  0.00    +0.000 A 
ATOM     17  C   UNL     1     -53.320 -55.850 -64.197  0.00  0.00    +0.000 A 
ATOM     18  C   UNL     1     -53.424 -55.468 -62.867  0.00  0.00    +0.000 A 
ATOM     19  C   UNL     1     -56.441 -59.056 -65.350  0.00  0.00    +0.000 A 
ATOM     20  C   UNL     1     -57.602 -59.879 -65.259  0.00  0.00    +0.000 A 
ATOM     21  C   UNL     1     -55.949 -59.023 -66.707  0.00  0.00    +0.000 C 
ATOM     22  C   UNL     1     -57.865 -60.395 -66.631  0.00  0.00    +0.000 C 
ATOM     23  N   UNL     1     -56.869 -59.850 -67.364  0.00  0.00    +0.000 N 
ATOM     24  H   UNL     1     -56.775 -60.020 -68.356  0.00  0.00    +0.000 HD
ATOM     25  O   UNL     1     -55.006 -58.470 -67.253  0.00  0.00    +0.000 OA
ATOM     26  C   UNL     1     -59.404 -60.548 -63.661  0.00  0.00    +0.000 A 
ATOM     27  C   UNL     1     -59.674 -60.275 -62.268  0.00  0.00    +0.000 A 
ATOM     28  C   UNL     1     -60.355 -61.283 -64.398  0.00  0.00    +0.000 A 
ATOM     29  C   UNL     1     -60.872 -60.724 -61.686  0.00  0.00    +0.000 A 
ATOM     30  C   UNL     1     -61.781 -61.448 -62.457  0.00  0.00    +0.000 A 
ATOM     31  C   UNL     1     -61.527 -61.730 -63.790  0.00  0.00    +0.000 A 
ENDROOT
BRANCH   3  32
ATOM     32  O   UNL     1     -60.031 -57.184 -60.949  0.00  0.00    +0.000 OA
ATOM     33  H   UNL     1     -60.838 -57.712 -60.758  0.00  0.00    +0.000 HD
ENDBRANCH   3  32
BRANCH   3  34
ATOM     34  C   UNL     1     -59.480 -57.408 -58.590  0.00  0.00    +0.000 C 
ATOM     35  O   UNL     1     -60.673 -57.516 -58.296  0.00  0.00    +0.000 OA
BRANCH  34  36
ATOM     36  O   UNL     1     -58.443 -57.060 -57.768  0.00  0.00    +0.000 OA
ATOM     37  C   UNL     1     -58.758 -56.454 -56.544  0.00  0.00    +0.000 C 
ENDBRANCH  34  36
ENDBRANCH   3  34
TORSDOF 3
ENDMDL
MODEL 9
REMARK VINA RESULT:      -6.2     47.572     49.661
REMARK  Name = 3035817_K252a.pdbqt.pdb
REMARK  3 active torsions:
REMARK  status: ('A' for Active; 'I' for Inactive)
REMARK    1  A    between atoms: C_3  and  O_7
REMARK    2  A    between atoms: C_3  and  C_9
REMARK    3  A    between atoms: C_9  and  O_11
REMARK                            x       y       z     vdW  Elec       q    Type
REMARK                         _______ _______ _______ _____ _____    ______ ____
ROOT
ATOM      1  O   UNL     1     -61.884 -50.948 -80.724  0.00  0.00    +0.000 OA
ATOM      2  C   UNL     1     -60.511 -50.773 -80.225  0.00  0.00    +0.000 C 
ATOM      3  C   UNL     1     -60.691 -50.575 -78.658  0.00  0.00    +0.000 C 
ATOM      4  C   UNL     1     -62.522 -51.702 -79.722  0.00  0.00    +0.000 C 
ATOM      5  C   UNL     1     -61.962 -51.277 -78.493  0.00  0.00    +0.000 C 
ATOM      6  C   UNL     1     -59.957 -49.520 -80.979  0.00  0.00    +0.000 C 
ATOM      7  N   UNL     1     -59.775 -52.005 -80.577  0.00  0.00    +0.000 N 
ATOM      8  C   UNL     1     -60.208 -53.297 -80.734  0.00  0.00    +0.000 A 
ATOM      9  C   UNL     1     -61.484 -53.796 -80.470  0.00  0.00    +0.000 A 
ATOM     10  C   UNL     1     -59.291 -54.281 -81.118  0.00  0.00    +0.000 A 
ATOM     11  N   UNL     1     -62.516 -53.064 -79.971  0.00  0.00    +0.000 N 
ATOM     12  C   UNL     1     -61.634 -55.178 -80.626  0.00  0.00    +0.000 A 
ATOM     13  C   UNL     1     -63.450 -54.084 -79.719  0.00  0.00    +0.000 A 
ATOM     14  C   UNL     1     -62.944 -55.373 -80.136  0.00  0.00    +0.000 A 
ATOM     15  C   UNL     1     -64.733 -53.962 -79.159  0.00  0.00    +0.000 A 
ATOM     16  C   UNL     1     -63.772 -56.498 -79.950  0.00  0.00    +0.000 A 
ATOM     17  C   UNL     1     -65.043 -56.356 -79.395  0.00  0.00    +0.000 A 
ATOM     18  C   UNL     1     -65.511 -55.109 -79.006  0.00  0.00    +0.000 A 
ATOM     19  C   UNL     1     -60.726 -56.178 -81.030  0.00  0.00    +0.000 A 
ATOM     20  C   UNL     1     -59.425 -55.664 -81.303  0.00  0.00    +0.000 A 
ATOM     21  C   UNL     1     -60.750 -57.611 -81.202  0.00  0.00    +0.000 C 
ATOM     22  C   UNL     1     -58.573 -56.831 -81.664  0.00  0.00    +0.000 C 
ATOM     23  N   UNL     1     -59.426 -57.875 -81.577  0.00  0.00    +0.000 N 
ATOM     24  H   UNL     1     -59.137 -58.825 -81.768  0.00  0.00    +0.000 HD
ATOM     25  O   UNL     1     -61.617 -58.464 -81.085  0.00  0.00    +0.000 OA
ATOM     26  C   UNL     1     -58.088 -53.555 -81.172  0.00  0.00    +0.000 A 
ATOM     27  C   UNL     1     -58.389 -52.187 -80.813  0.00  0.00    +0.000 A 
ATOM     28  C   UNL     1     -56.749 -53.898 -81.449  0.00  0.00    +0.000 A 
ATOM     29  C   UNL     1     -57.351 -51.242 -80.729  0.00  0.00    +0.000 A 
ATOM     30  C   UNL     1     -56.043 -51.631 -81.015  0.00  0.00    +0.000 A 
ATOM     31  C   UNL     1     -55.744 -52.935 -81.375  0.00  0.00    +0.000 A 
ENDROOT
BRANCH   3  32
ATOM     32  O   UNL     1     -59.695 -51.220 -77.850  0.00  0.00    +0.000 OA
ATOM     33  H   UNL     1     -58.883 -50.668 -77.892  0.00  0.00    +0.000 HD
ENDBRANCH   3  32
BRANCH   3  34
ATOM     34  C   UNL     1     -60.809 -49.100 -78.283  0.00  0.00    +0.000 C 
ATOM     35  O   UNL     1     -59.808 -48.453 -77.964  0.00  0.00    +0.000 OA
BRANCH  34  36
ATOM     36  O   UNL     1     -62.108 -48.675 -78.305  0.00  0.00    +0.000 OA
ATOM     37  C   UNL     1     -62.398 -47.500 -79.013  0.00  0.00    +0.000 C 
ENDBRANCH  34  36
ENDBRANCH   3  34
TORSDOF 3
ENDMDL
