MODEL 1
REMARK VINA RESULT:      -4.3      0.000      0.000
REMARK  Name = 3136_Dimethoxy.pdbqt.pdb
REMARK  2 active torsions:
REMARK  status: ('A' for Active; 'I' for Inactive)
REMARK    1  A    between atoms: C_7  and  O_13
REMARK    2  A    between atoms: C_8  and  O_15
REMARK                            x       y       z     vdW  Elec       q    Type
REMARK                         _______ _______ _______ _____ _____    ______ ____
ROOT
ATOM      1  O   UNL     1     -74.177 -55.932 -26.594  0.00  0.00    +0.000 OA
ATOM      2  O   UNL     1     -71.733 -59.207 -23.174  0.00  0.00    +0.000 OA
ATOM      3  C   UNL     1     -73.720 -56.469 -24.364  0.00  0.00    +0.000 A 
ATOM      4  C   UNL     1     -73.104 -57.337 -23.474  0.00  0.00    +0.000 A 
ATOM      5  C   UNL     1     -73.591 -56.669 -25.812  0.00  0.00    +0.000 C 
ATOM      6  C   UNL     1     -72.317 -58.475 -23.960  0.00  0.00    +0.000 C 
ATOM      7  C   UNL     1     -72.751 -57.794 -26.290  0.00  0.00    +0.000 C 
ATOM      8  C   UNL     1     -72.237 -58.693 -25.425  0.00  0.00    +0.000 C 
ATOM      9  C   UNL     1     -74.471 -55.395 -23.888  0.00  0.00    +0.000 A 
ATOM     10  C   UNL     1     -73.230 -57.133 -22.099  0.00  0.00    +0.000 A 
ATOM     11  C   UNL     1     -74.599 -55.191 -22.516  0.00  0.00    +0.000 A 
ATOM     12  C   UNL     1     -73.978 -56.059 -21.621  0.00  0.00    +0.000 A 
ENDROOT
BRANCH   7  13
ATOM     13  O   UNL     1     -72.631 -57.899 -27.664  0.00  0.00    +0.000 OA
ATOM     14  C   UNL     1     -71.473 -57.222 -28.090  0.00  0.00    +0.000 C 
ENDBRANCH   7  13
BRANCH   8  15
ATOM     15  O   UNL     1     -71.523 -59.810 -25.818  0.00  0.00    +0.000 OA
ATOM     16  C   UNL     1     -72.407 -60.880 -26.050  0.00  0.00    +0.000 C 
ENDBRANCH   8  15
TORSDOF 2
ENDMDL
MODEL 2
REMARK VINA RESULT:      -4.2      7.719      9.804
REMARK  Name = 3136_Dimethoxy.pdbqt.pdb
REMARK  2 active torsions:
REMARK  status: ('A' for Active; 'I' for Inactive)
REMARK    1  A    between atoms: C_7  and  O_13
REMARK    2  A    between atoms: C_8  and  O_15
REMARK                            x       y       z     vdW  Elec       q    Type
REMARK                         _______ _______ _______ _____ _____    ______ ____
ROOT
ATOM      1  O   UNL     1     -70.924 -56.160 -35.794  0.00  0.00    +0.000 OA
ATOM      2  O   UNL     1     -67.588 -58.002 -32.069  0.00  0.00    +0.000 OA
ATOM      3  C   UNL     1     -70.334 -56.219 -33.532  0.00  0.00    +0.000 A 
ATOM      4  C   UNL     1     -69.480 -56.718 -32.559  0.00  0.00    +0.000 A 
ATOM      5  C   UNL     1     -70.139 -56.561 -34.945  0.00  0.00    +0.000 C 
ATOM      6  C   UNL     1     -68.369 -57.605 -32.922  0.00  0.00    +0.000 C 
ATOM      7  C   UNL     1     -68.982 -57.418 -35.303  0.00  0.00    +0.000 C 
ATOM      8  C   UNL     1     -68.215 -57.983 -34.348  0.00  0.00    +0.000 C 
ATOM      9  C   UNL     1     -71.390 -55.382 -33.172  0.00  0.00    +0.000 A 
ATOM     10  C   UNL     1     -69.673 -56.380 -31.219  0.00  0.00    +0.000 A 
ATOM     11  C   UNL     1     -71.585 -55.044 -31.835  0.00  0.00    +0.000 A 
ATOM     12  C   UNL     1     -70.726 -55.543 -30.858  0.00  0.00    +0.000 A 
ENDROOT
BRANCH   7  13
ATOM     13  O   UNL     1     -68.826 -57.665 -36.654  0.00  0.00    +0.000 OA
ATOM     14  C   UNL     1     -67.891 -56.763 -37.195  0.00  0.00    +0.000 C 
ENDBRANCH   7  13
BRANCH   8  15
ATOM     15  O   UNL     1     -67.180 -58.860 -34.617  0.00  0.00    +0.000 OA
ATOM     16  C   UNL     1     -67.672 -60.179 -34.641  0.00  0.00    +0.000 C 
ENDBRANCH   8  15
TORSDOF 2
ENDMDL
MODEL 3
REMARK VINA RESULT:      -4.2     31.905     35.349
REMARK  Name = 3136_Dimethoxy.pdbqt.pdb
REMARK  2 active torsions:
REMARK  status: ('A' for Active; 'I' for Inactive)
REMARK    1  A    between atoms: C_7  and  O_13
REMARK    2  A    between atoms: C_8  and  O_15
REMARK                            x       y       z     vdW  Elec       q    Type
REMARK                         _______ _______ _______ _____ _____    ______ ____
ROOT
ATOM      1  O   UNL     1     -66.973 -47.252 -56.178  0.00  0.00    +0.000 OA
ATOM      2  O   UNL     1     -62.115 -45.498 -57.490  0.00  0.00    +0.000 OA
ATOM      3  C   UNL     1     -65.337 -47.035 -57.835  0.00  0.00    +0.000 A 
ATOM      4  C   UNL     1     -64.082 -46.556 -58.183  0.00  0.00    +0.000 A 
ATOM      5  C   UNL     1     -65.846 -46.874 -56.469  0.00  0.00    +0.000 C 
ATOM      6  C   UNL     1     -63.241 -45.873 -57.194  0.00  0.00    +0.000 C 
ATOM      7  C   UNL     1     -64.965 -46.226 -55.466  0.00  0.00    +0.000 C 
ATOM      8  C   UNL     1     -63.790 -45.673 -55.831  0.00  0.00    +0.000 C 
ATOM      9  C   UNL     1     -66.129 -47.677 -58.787  0.00  0.00    +0.000 A 
ATOM     10  C   UNL     1     -63.607 -46.720 -59.485  0.00  0.00    +0.000 A 
ATOM     11  C   UNL     1     -65.657 -47.841 -60.087  0.00  0.00    +0.000 A 
ATOM     12  C   UNL     1     -64.396 -47.363 -60.436  0.00  0.00    +0.000 A 
ENDROOT
BRANCH   7  13
ATOM     13  O   UNL     1     -65.483 -46.148 -54.187  0.00  0.00    +0.000 OA
ATOM     14  C   UNL     1     -64.972 -47.200 -53.404  0.00  0.00    +0.000 C 
ENDBRANCH   7  13
BRANCH   8  15
ATOM     15  O   UNL     1     -62.969 -44.978 -54.960  0.00  0.00    +0.000 OA
ATOM     16  C   UNL     1     -63.349 -43.623 -54.930  0.00  0.00    +0.000 C 
ENDBRANCH   8  15
TORSDOF 2
ENDMDL
MODEL 4
REMARK VINA RESULT:      -4.1     33.653     36.216
REMARK  Name = 3136_Dimethoxy.pdbqt.pdb
REMARK  2 active torsions:
REMARK  status: ('A' for Active; 'I' for Inactive)
REMARK    1  A    between atoms: C_7  and  O_13
REMARK    2  A    between atoms: C_8  and  O_15
REMARK                            x       y       z     vdW  Elec       q    Type
REMARK                         _______ _______ _______ _____ _____    ______ ____
ROOT
ATOM      1  O   UNL     1     -57.931 -57.723 -58.214  0.00  0.00    +0.000 OA
ATOM      2  O   UNL     1     -63.085 -56.454 -58.690  0.00  0.00    +0.000 OA
ATOM      3  C   UNL     1     -59.536 -56.336 -59.198  0.00  0.00    +0.000 A 
ATOM      4  C   UNL     1     -60.880 -56.022 -59.340  0.00  0.00    +0.000 A 
ATOM      5  C   UNL     1     -59.113 -57.415 -58.299  0.00  0.00    +0.000 C 
ATOM      6  C   UNL     1     -61.906 -56.767 -58.602  0.00  0.00    +0.000 C 
ATOM      7  C   UNL     1     -60.156 -58.127 -57.521  0.00  0.00    +0.000 C 
ATOM      8  C   UNL     1     -61.466 -57.888 -57.737  0.00  0.00    +0.000 C 
ATOM      9  C   UNL     1     -58.572 -55.623 -59.910  0.00  0.00    +0.000 A 
ATOM     10  C   UNL     1     -61.270 -54.989 -60.194  0.00  0.00    +0.000 A 
ATOM     11  C   UNL     1     -58.960 -54.592 -60.763  0.00  0.00    +0.000 A 
ATOM     12  C   UNL     1     -60.309 -54.274 -60.905  0.00  0.00    +0.000 A 
ENDROOT
BRANCH   7  13
ATOM     13  O   UNL     1     -59.688 -59.101 -56.658  0.00  0.00    +0.000 OA
ATOM     14  C   UNL     1     -59.553 -58.561 -55.365  0.00  0.00    +0.000 C 
ENDBRANCH   7  13
BRANCH   8  15
ATOM     15  O   UNL     1     -62.483 -58.583 -57.107  0.00  0.00    +0.000 OA
ATOM     16  C   UNL     1     -62.706 -59.803 -57.773  0.00  0.00    +0.000 C 
ENDBRANCH   8  15
TORSDOF 2
ENDMDL
MODEL 5
REMARK VINA RESULT:      -4.0     69.905     73.026
REMARK  Name = 3136_Dimethoxy.pdbqt.pdb
REMARK  2 active torsions:
REMARK  status: ('A' for Active; 'I' for Inactive)
REMARK    1  A    between atoms: C_7  and  O_13
REMARK    2  A    between atoms: C_8  and  O_15
REMARK                            x       y       z     vdW  Elec       q    Type
REMARK                         _______ _______ _______ _____ _____    ______ ____
ROOT
ATOM      1  O   UNL     1     -44.999 -59.550 -94.056  0.00  0.00    +0.000 OA
ATOM      2  O   UNL     1     -44.882 -62.685 -89.749  0.00  0.00    +0.000 OA
ATOM      3  C   UNL     1     -44.288 -61.564 -93.104  0.00  0.00    +0.000 A 
ATOM      4  C   UNL     1     -44.237 -62.369 -91.975  0.00  0.00    +0.000 A 
ATOM      5  C   UNL     1     -44.998 -60.281 -93.075  0.00  0.00    +0.000 C 
ATOM      6  C   UNL     1     -44.885 -61.951 -90.727  0.00  0.00    +0.000 C 
ATOM      7  C   UNL     1     -45.691 -59.893 -91.821  0.00  0.00    +0.000 C 
ATOM      8  C   UNL     1     -45.555 -60.628 -90.698  0.00  0.00    +0.000 C 
ATOM      9  C   UNL     1     -43.663 -61.971 -94.282  0.00  0.00    +0.000 A 
ATOM     10  C   UNL     1     -43.563 -63.590 -92.016  0.00  0.00    +0.000 A 
ATOM     11  C   UNL     1     -42.988 -63.189 -94.325  0.00  0.00    +0.000 A 
ATOM     12  C   UNL     1     -42.939 -63.999 -93.193  0.00  0.00    +0.000 A 
ENDROOT
BRANCH   7  13
ATOM     13  O   UNL     1     -46.382 -58.696 -91.874  0.00  0.00    +0.000 OA
ATOM     14  C   UNL     1     -47.731 -58.942 -92.190  0.00  0.00    +0.000 C 
ENDBRANCH   7  13
BRANCH   8  15
ATOM     15  O   UNL     1     -46.103 -60.270 -89.479  0.00  0.00    +0.000 OA
ATOM     16  C   UNL     1     -45.197 -59.456 -88.774  0.00  0.00    +0.000 C 
ENDBRANCH   8  15
TORSDOF 2
ENDMDL
MODEL 6
REMARK VINA RESULT:      -4.0     70.378     73.235
REMARK  Name = 3136_Dimethoxy.pdbqt.pdb
REMARK  2 active torsions:
REMARK  status: ('A' for Active; 'I' for Inactive)
REMARK    1  A    between atoms: C_7  and  O_13
REMARK    2  A    between atoms: C_8  and  O_15
REMARK                            x       y       z     vdW  Elec       q    Type
REMARK                         _______ _______ _______ _____ _____    ______ ____
ROOT
ATOM      1  O   UNL     1     -46.224 -61.842 -90.071  0.00  0.00    +0.000 OA
ATOM      2  O   UNL     1     -44.441 -59.594 -94.561  0.00  0.00    +0.000 OA
ATOM      3  C   UNL     1     -44.806 -61.997 -91.924  0.00  0.00    +0.000 A 
ATOM      4  C   UNL     1     -44.360 -61.423 -93.106  0.00  0.00    +0.000 A 
ATOM      5  C   UNL     1     -45.795 -61.310 -91.086  0.00  0.00    +0.000 C 
ATOM      6  C   UNL     1     -44.874 -60.121 -93.546  0.00  0.00    +0.000 C 
ATOM      7  C   UNL     1     -46.269 -59.973 -91.518  0.00  0.00    +0.000 C 
ATOM      8  C   UNL     1     -45.911 -59.463 -92.715  0.00  0.00    +0.000 C 
ATOM      9  C   UNL     1     -44.313 -63.238 -91.520  0.00  0.00    +0.000 A 
ATOM     10  C   UNL     1     -43.414 -62.083 -93.891  0.00  0.00    +0.000 A 
ATOM     11  C   UNL     1     -43.370 -63.899 -92.303  0.00  0.00    +0.000 A 
ATOM     12  C   UNL     1     -42.920 -63.322 -93.489  0.00  0.00    +0.000 A 
ENDROOT
BRANCH   7  13
ATOM     13  O   UNL     1     -47.164 -59.358 -90.662  0.00  0.00    +0.000 OA
ATOM     14  C   UNL     1     -46.476 -58.465 -89.820  0.00  0.00    +0.000 C 
ENDBRANCH   7  13
BRANCH   8  15
ATOM     15  O   UNL     1     -46.390 -58.263 -93.209  0.00  0.00    +0.000 OA
ATOM     16  C   UNL     1     -47.607 -58.481 -93.882  0.00  0.00    +0.000 C 
ENDBRANCH   8  15
TORSDOF 2
ENDMDL
MODEL 7
REMARK VINA RESULT:      -4.0     42.618     45.610
REMARK  Name = 3136_Dimethoxy.pdbqt.pdb
REMARK  2 active torsions:
REMARK  status: ('A' for Active; 'I' for Inactive)
REMARK    1  A    between atoms: C_7  and  O_13
REMARK    2  A    between atoms: C_8  and  O_15
REMARK                            x       y       z     vdW  Elec       q    Type
REMARK                         _______ _______ _______ _____ _____    ______ ____
ROOT
ATOM      1  O   UNL     1     -52.628 -56.309 -65.801  0.00  0.00    +0.000 OA
ATOM      2  O   UNL     1     -56.973 -59.245 -66.751  0.00  0.00    +0.000 OA
ATOM      3  C   UNL     1     -54.097 -57.199 -67.389  0.00  0.00    +0.000 A 
ATOM      4  C   UNL     1     -55.214 -57.984 -67.637  0.00  0.00    +0.000 A 
ATOM      5  C   UNL     1     -53.643 -56.960 -66.014  0.00  0.00    +0.000 C 
ATOM      6  C   UNL     1     -55.959 -58.596 -66.532  0.00  0.00    +0.000 C 
ATOM      7  C   UNL     1     -54.435 -57.545 -64.905  0.00  0.00    +0.000 C 
ATOM      8  C   UNL     1     -55.458 -58.387 -65.152  0.00  0.00    +0.000 C 
ATOM      9  C   UNL     1     -53.394 -56.627 -68.449  0.00  0.00    +0.000 A 
ATOM     10  C   UNL     1     -55.640 -58.199 -68.949  0.00  0.00    +0.000 A 
ATOM     11  C   UNL     1     -53.817 -56.842 -69.758  0.00  0.00    +0.000 A 
ATOM     12  C   UNL     1     -54.940 -57.627 -70.009  0.00  0.00    +0.000 A 
ENDROOT
BRANCH   7  13
ATOM     13  O   UNL     1     -53.982 -57.243 -63.633  0.00  0.00    +0.000 OA
ATOM     14  C   UNL     1     -54.730 -56.174 -63.106  0.00  0.00    +0.000 C 
ENDBRANCH   7  13
BRANCH   8  15
ATOM     15  O   UNL     1     -56.175 -59.032 -64.160  0.00  0.00    +0.000 OA
ATOM     16  C   UNL     1     -55.543 -60.246 -63.831  0.00  0.00    +0.000 C 
ENDBRANCH   8  15
TORSDOF 2
ENDMDL
MODEL 8
REMARK VINA RESULT:      -3.9      9.589     12.233
REMARK  Name = 3136_Dimethoxy.pdbqt.pdb
REMARK  2 active torsions:
REMARK  status: ('A' for Active; 'I' for Inactive)
REMARK    1  A    between atoms: C_7  and  O_13
REMARK    2  A    between atoms: C_8  and  O_15
REMARK                            x       y       z     vdW  Elec       q    Type
REMARK                         _______ _______ _______ _____ _____    ______ ____
ROOT
ATOM      1  O   UNL     1     -66.874 -59.610 -36.060  0.00  0.00    +0.000 OA
ATOM      2  O   UNL     1     -70.756 -55.970 -35.781  0.00  0.00    +0.000 OA
ATOM      3  C   UNL     1     -68.185 -58.227 -34.704  0.00  0.00    +0.000 A 
ATOM      4  C   UNL     1     -69.179 -57.261 -34.634  0.00  0.00    +0.000 A 
ATOM      5  C   UNL     1     -67.785 -58.795 -35.996  0.00  0.00    +0.000 C 
ATOM      6  C   UNL     1     -69.845 -56.783 -35.851  0.00  0.00    +0.000 C 
ATOM      7  C   UNL     1     -68.502 -58.339 -37.213  0.00  0.00    +0.000 C 
ATOM      8  C   UNL     1     -69.395 -57.330 -37.154  0.00  0.00    +0.000 C 
ATOM      9  C   UNL     1     -67.556 -58.668 -33.541  0.00  0.00    +0.000 A 
ATOM     10  C   UNL     1     -69.555 -56.733 -33.399  0.00  0.00    +0.000 A 
ATOM     11  C   UNL     1     -67.929 -58.141 -32.307  0.00  0.00    +0.000 A 
ATOM     12  C   UNL     1     -68.929 -57.174 -32.235  0.00  0.00    +0.000 A 
ENDROOT
BRANCH   7  13
ATOM     13  O   UNL     1     -68.111 -58.947 -38.391  0.00  0.00    +0.000 OA
ATOM     14  C   UNL     1     -68.987 -60.008 -38.689  0.00  0.00    +0.000 C 
ENDBRANCH   7  13
BRANCH   8  15
ATOM     15  O   UNL     1     -70.027 -56.803 -38.266  0.00  0.00    +0.000 OA
ATOM     16  C   UNL     1     -69.240 -55.772 -38.813  0.00  0.00    +0.000 C 
ENDBRANCH   8  15
TORSDOF 2
ENDMDL
MODEL 9
REMARK VINA RESULT:      -3.8     72.095     74.044
REMARK  Name = 3136_Dimethoxy.pdbqt.pdb
REMARK  2 active torsions:
REMARK  status: ('A' for Active; 'I' for Inactive)
REMARK    1  A    between atoms: C_7  and  O_13
REMARK    2  A    between atoms: C_8  and  O_15
REMARK                            x       y       z     vdW  Elec       q    Type
REMARK                         _______ _______ _______ _____ _____    ______ ____
ROOT
ATOM      1  O   UNL     1     -43.717 -60.479 -95.497  0.00  0.00    +0.000 OA
ATOM      2  O   UNL     1     -46.076 -60.802 -90.730  0.00  0.00    +0.000 OA
ATOM      3  C   UNL     1     -44.031 -61.709 -93.533  0.00  0.00    +0.000 A 
ATOM      4  C   UNL     1     -44.626 -61.781 -92.282  0.00  0.00    +0.000 A 
ATOM      5  C   UNL     1     -44.283 -60.564 -94.415  0.00  0.00    +0.000 C 
ATOM      6  C   UNL     1     -45.513 -60.711 -91.812  0.00  0.00    +0.000 C 
ATOM      7  C   UNL     1     -45.220 -59.514 -93.948  0.00  0.00    +0.000 C 
ATOM      8  C   UNL     1     -45.717 -59.536 -92.694  0.00  0.00    +0.000 C 
ATOM      9  C   UNL     1     -43.186 -62.730 -93.965  0.00  0.00    +0.000 A 
ATOM     10  C   UNL     1     -44.384 -62.878 -91.454  0.00  0.00    +0.000 A 
ATOM     11  C   UNL     1     -42.941 -63.826 -93.140  0.00  0.00    +0.000 A 
ATOM     12  C   UNL     1     -43.540 -63.900 -91.884  0.00  0.00    +0.000 A 
ENDROOT
BRANCH   7  13
ATOM     13  O   UNL     1     -45.452 -58.487 -94.844  0.00  0.00    +0.000 OA
ATOM     14  C   UNL     1     -44.581 -57.416 -94.571  0.00  0.00    +0.000 C 
ENDBRANCH   7  13
BRANCH   8  15
ATOM     15  O   UNL     1     -46.524 -58.540 -92.173  0.00  0.00    +0.000 OA
ATOM     16  C   UNL     1     -47.855 -58.748 -92.580  0.00  0.00    +0.000 C 
ENDBRANCH   8  15
TORSDOF 2
ENDMDL
