MODEL 1
REMARK VINA RESULT:      -4.6      0.000      0.000
REMARK  Name = 326_Cuminaldehyde.pdb
REMARK  1 active torsions:
REMARK  status: ('A' for Active; 'I' for Inactive)
REMARK    1  A    between atoms: C_1  and  C_7
REMARK                            x       y       z     vdW  Elec       q    Type
REMARK                         _______ _______ _______ _____ _____    ______ ____
ROOT
ATOM      1  C   UNL     1     -63.613 -46.874 -59.514  0.00  0.00    +0.000 C 
ATOM      2  C   UNL     1     -64.455 -47.537 -60.410  0.00  0.00    +0.000 C 
ATOM      3  C   UNL     1     -64.092 -46.523 -58.250  0.00  0.00    +0.000 C 
ATOM      4  C   UNL     1     -65.764 -47.848 -60.044  0.00  0.00    +0.000 C 
ATOM      5  C   UNL     1     -65.401 -46.833 -57.884  0.00  0.00    +0.000 C 
ATOM      6  C   UNL     1     -66.235 -47.495 -58.782  0.00  0.00    +0.000 C 
ATOM      7  O   UNL     1     -68.679 -48.074 -58.099  0.00  0.00    +0.000 OA
ATOM      8  C   UNL     1     -67.574 -47.812 -58.408  0.00  0.00    +0.000 C 
ENDROOT
BRANCH   1   9
ATOM      9  C   UNL     1     -62.242 -46.549 -59.898  0.00  0.00    +0.000 C 
ATOM     10  C   UNL     1     -61.780 -46.645 -61.330  0.00  0.00    +0.000 C 
ATOM     11  C   UNL     1     -61.224 -46.103 -58.878  0.00  0.00    +0.000 C 
ENDBRANCH   1   9
TORSDOF 1
ENDMDL
MODEL 2
REMARK VINA RESULT:      -4.6      9.388      9.634
REMARK  Name = 326_Cuminaldehyde.pdb
REMARK  1 active torsions:
REMARK  status: ('A' for Active; 'I' for Inactive)
REMARK    1  A    between atoms: C_1  and  C_7
REMARK                            x       y       z     vdW  Elec       q    Type
REMARK                         _______ _______ _______ _____ _____    ______ ____
ROOT
ATOM      1  C   UNL     1     -60.453 -55.508 -58.878  0.00  0.00    +0.000 C 
ATOM      2  C   UNL     1     -60.060 -55.290 -57.555  0.00  0.00    +0.000 C 
ATOM      3  C   UNL     1     -61.715 -56.047 -59.140  0.00  0.00    +0.000 C 
ATOM      4  C   UNL     1     -60.921 -55.605 -56.505  0.00  0.00    +0.000 C 
ATOM      5  C   UNL     1     -62.576 -56.363 -58.090  0.00  0.00    +0.000 C 
ATOM      6  C   UNL     1     -62.178 -56.141 -56.774  0.00  0.00    +0.000 C 
ATOM      7  O   UNL     1     -63.785 -56.732 -54.815  0.00  0.00    +0.000 OA
ATOM      8  C   UNL     1     -63.059 -56.465 -55.700  0.00  0.00    +0.000 C 
ENDROOT
BRANCH   1   9
ATOM      9  C   UNL     1     -59.551 -55.177 -59.977  0.00  0.00    +0.000 C 
ATOM     10  C   UNL     1     -59.727 -53.917 -60.788  0.00  0.00    +0.000 C 
ATOM     11  C   UNL     1     -58.402 -56.079 -60.351  0.00  0.00    +0.000 C 
ENDBRANCH   1   9
TORSDOF 1
ENDMDL
MODEL 3
REMARK VINA RESULT:      -4.3     36.237     37.823
REMARK  Name = 326_Cuminaldehyde.pdb
REMARK  1 active torsions:
REMARK  status: ('A' for Active; 'I' for Inactive)
REMARK    1  A    between atoms: C_1  and  C_7
REMARK                            x       y       z     vdW  Elec       q    Type
REMARK                         _______ _______ _______ _____ _____    ______ ____
ROOT
ATOM      1  C   UNL     1     -73.199 -57.177 -23.459  0.00  0.00    +0.000 C 
ATOM      2  C   UNL     1     -73.331 -57.022 -24.841  0.00  0.00    +0.000 C 
ATOM      3  C   UNL     1     -72.531 -58.295 -22.953  0.00  0.00    +0.000 C 
ATOM      4  C   UNL     1     -72.800 -57.975 -25.708  0.00  0.00    +0.000 C 
ATOM      5  C   UNL     1     -72.000 -59.249 -23.819  0.00  0.00    +0.000 C 
ATOM      6  C   UNL     1     -72.136 -59.087 -25.197  0.00  0.00    +0.000 C 
ATOM      7  O   UNL     1     -71.145 -60.867 -26.815  0.00  0.00    +0.000 OA
ATOM      8  C   UNL     1     -71.592 -60.063 -26.084  0.00  0.00    +0.000 C 
ENDROOT
BRANCH   1   9
ATOM      9  C   UNL     1     -73.755 -56.178 -22.550  0.00  0.00    +0.000 C 
ATOM     10  C   UNL     1     -74.725 -55.129 -23.032  0.00  0.00    +0.000 C 
ATOM     11  C   UNL     1     -73.384 -56.150 -21.089  0.00  0.00    +0.000 C 
ENDBRANCH   1   9
TORSDOF 1
ENDMDL
MODEL 4
REMARK VINA RESULT:      -4.3      2.665      5.041
REMARK  Name = 326_Cuminaldehyde.pdb
REMARK  1 active torsions:
REMARK  status: ('A' for Active; 'I' for Inactive)
REMARK    1  A    between atoms: C_1  and  C_7
REMARK                            x       y       z     vdW  Elec       q    Type
REMARK                         _______ _______ _______ _____ _____    ______ ____
ROOT
ATOM      1  C   UNL     1     -65.801 -47.478 -58.952  0.00  0.00    +0.000 C 
ATOM      2  C   UNL     1     -64.903 -46.688 -58.230  0.00  0.00    +0.000 C 
ATOM      3  C   UNL     1     -65.442 -47.943 -60.220  0.00  0.00    +0.000 C 
ATOM      4  C   UNL     1     -63.658 -46.368 -58.770  0.00  0.00    +0.000 C 
ATOM      5  C   UNL     1     -64.198 -47.622 -60.760  0.00  0.00    +0.000 C 
ATOM      6  C   UNL     1     -63.307 -46.835 -60.033  0.00  0.00    +0.000 C 
ATOM      7  O   UNL     1     -60.984 -46.236 -61.042  0.00  0.00    +0.000 OA
ATOM      8  C   UNL     1     -62.034 -46.507 -60.586  0.00  0.00    +0.000 C 
ENDROOT
BRANCH   1   9
ATOM      9  C   UNL     1     -67.104 -47.814 -58.387  0.00  0.00    +0.000 C 
ATOM     10  C   UNL     1     -68.378 -47.217 -58.933  0.00  0.00    +0.000 C 
ATOM     11  C   UNL     1     -67.237 -48.773 -57.230  0.00  0.00    +0.000 C 
ENDBRANCH   1   9
TORSDOF 1
ENDMDL
MODEL 5
REMARK VINA RESULT:      -4.2     27.128     28.705
REMARK  Name = 326_Cuminaldehyde.pdb
REMARK  1 active torsions:
REMARK  status: ('A' for Active; 'I' for Inactive)
REMARK    1  A    between atoms: C_1  and  C_7
REMARK                            x       y       z     vdW  Elec       q    Type
REMARK                         _______ _______ _______ _____ _____    ______ ____
ROOT
ATOM      1  C   UNL     1     -69.740 -56.433 -32.377  0.00  0.00    +0.000 C 
ATOM      2  C   UNL     1     -68.763 -57.279 -31.846  0.00  0.00    +0.000 C 
ATOM      3  C   UNL     1     -69.905 -56.357 -33.762  0.00  0.00    +0.000 C 
ATOM      4  C   UNL     1     -67.961 -58.044 -32.692  0.00  0.00    +0.000 C 
ATOM      5  C   UNL     1     -69.103 -57.120 -34.608  0.00  0.00    +0.000 C 
ATOM      6  C   UNL     1     -68.131 -57.963 -34.071  0.00  0.00    +0.000 C 
ATOM      7  O   UNL     1     -66.633 -59.388 -35.651  0.00  0.00    +0.000 OA
ATOM      8  C   UNL     1     -67.310 -58.744 -34.937  0.00  0.00    +0.000 C 
ENDROOT
BRANCH   1   9
ATOM      9  C   UNL     1     -70.581 -55.633 -31.490  0.00  0.00    +0.000 C 
ATOM     10  C   UNL     1     -71.856 -54.993 -31.980  0.00  0.00    +0.000 C 
ATOM     11  C   UNL     1     -70.213 -55.411 -30.045  0.00  0.00    +0.000 C 
ENDBRANCH   1   9
TORSDOF 1
ENDMDL
MODEL 6
REMARK VINA RESULT:      -4.1      9.798     10.534
REMARK  Name = 326_Cuminaldehyde.pdb
REMARK  1 active torsions:
REMARK  status: ('A' for Active; 'I' for Inactive)
REMARK    1  A    between atoms: C_1  and  C_7
REMARK                            x       y       z     vdW  Elec       q    Type
REMARK                         _______ _______ _______ _____ _____    ______ ____
ROOT
ATOM      1  C   UNL     1     -61.968 -56.070 -56.921  0.00  0.00    +0.000 C 
ATOM      2  C   UNL     1     -62.335 -56.199 -58.263  0.00  0.00    +0.000 C 
ATOM      3  C   UNL     1     -60.705 -55.568 -56.600  0.00  0.00    +0.000 C 
ATOM      4  C   UNL     1     -61.449 -55.828 -59.273  0.00  0.00    +0.000 C 
ATOM      5  C   UNL     1     -59.817 -55.198 -57.609  0.00  0.00    +0.000 C 
ATOM      6  C   UNL     1     -60.191 -55.329 -58.945  0.00  0.00    +0.000 C 
ATOM      7  O   UNL     1     -58.535 -54.638 -60.829  0.00  0.00    +0.000 OA
ATOM      8  C   UNL     1     -59.283 -54.950 -59.977  0.00  0.00    +0.000 C 
ENDROOT
BRANCH   1   9
ATOM      9  C   UNL     1     -62.897 -56.457 -55.864  0.00  0.00    +0.000 C 
ATOM     10  C   UNL     1     -62.553 -57.537 -54.868  0.00  0.00    +0.000 C 
ATOM     11  C   UNL     1     -64.245 -55.795 -55.718  0.00  0.00    +0.000 C 
ENDBRANCH   1   9
TORSDOF 1
ENDMDL
MODEL 7
REMARK VINA RESULT:      -4.0     36.883     38.583
REMARK  Name = 326_Cuminaldehyde.pdb
REMARK  1 active torsions:
REMARK  status: ('A' for Active; 'I' for Inactive)
REMARK    1  A    between atoms: C_1  and  C_7
REMARK                            x       y       z     vdW  Elec       q    Type
REMARK                         _______ _______ _______ _____ _____    ______ ____
ROOT
ATOM      1  C   UNL     1     -73.775 -56.230 -22.142  0.00  0.00    +0.000 C 
ATOM      2  C   UNL     1     -73.064 -57.414 -22.351  0.00  0.00    +0.000 C 
ATOM      3  C   UNL     1     -74.309 -55.546 -23.237  0.00  0.00    +0.000 C 
ATOM      4  C   UNL     1     -72.890 -57.911 -23.641  0.00  0.00    +0.000 C 
ATOM      5  C   UNL     1     -74.135 -56.042 -24.528  0.00  0.00    +0.000 C 
ATOM      6  C   UNL     1     -73.425 -57.224 -24.728  0.00  0.00    +0.000 C 
ATOM      7  O   UNL     1     -73.100 -58.150 -27.138  0.00  0.00    +0.000 OA
ATOM      8  C   UNL     1     -73.247 -57.731 -26.049  0.00  0.00    +0.000 C 
ENDROOT
BRANCH   1   9
ATOM      9  C   UNL     1     -73.958 -55.710 -20.790  0.00  0.00    +0.000 C 
ATOM     10  C   UNL     1     -75.332 -55.535 -20.192  0.00  0.00    +0.000 C 
ATOM     11  C   UNL     1     -72.782 -55.325 -19.928  0.00  0.00    +0.000 C 
ENDBRANCH   1   9
TORSDOF 1
ENDMDL
MODEL 8
REMARK VINA RESULT:      -4.0     21.110     22.699
REMARK  Name = 326_Cuminaldehyde.pdb
REMARK  1 active torsions:
REMARK  status: ('A' for Active; 'I' for Inactive)
REMARK    1  A    between atoms: C_1  and  C_7
REMARK                            x       y       z     vdW  Elec       q    Type
REMARK                         _______ _______ _______ _____ _____    ______ ____
ROOT
ATOM      1  C   UNL     1     -65.205 -47.672 -36.146  0.00  0.00    +0.000 C 
ATOM      2  C   UNL     1     -63.810 -47.699 -36.093  0.00  0.00    +0.000 C 
ATOM      3  C   UNL     1     -65.842 -47.369 -37.352  0.00  0.00    +0.000 C 
ATOM      4  C   UNL     1     -63.058 -47.426 -37.235  0.00  0.00    +0.000 C 
ATOM      5  C   UNL     1     -65.091 -47.096 -38.494  0.00  0.00    +0.000 C 
ATOM      6  C   UNL     1     -63.699 -47.125 -38.434  0.00  0.00    +0.000 C 
ATOM      7  O   UNL     1     -62.297 -46.615 -40.565  0.00  0.00    +0.000 OA
ATOM      8  C   UNL     1     -62.931 -46.845 -39.602  0.00  0.00    +0.000 C 
ENDROOT
BRANCH   1   9
ATOM      9  C   UNL     1     -65.992 -47.959 -34.950  0.00  0.00    +0.000 C 
ATOM     10  C   UNL     1     -65.947 -47.056 -33.743  0.00  0.00    +0.000 C 
ATOM     11  C   UNL     1     -66.886 -49.170 -34.867  0.00  0.00    +0.000 C 
ENDBRANCH   1   9
TORSDOF 1
ENDMDL
MODEL 9
REMARK VINA RESULT:      -4.0     26.088     27.506
REMARK  Name = 326_Cuminaldehyde.pdb
REMARK  1 active torsions:
REMARK  status: ('A' for Active; 'I' for Inactive)
REMARK    1  A    between atoms: C_1  and  C_7
REMARK                            x       y       z     vdW  Elec       q    Type
REMARK                         _______ _______ _______ _____ _____    ______ ____
ROOT
ATOM      1  C   UNL     1     -66.820 -48.767 -33.140  0.00  0.00    +0.000 C 
ATOM      2  C   UNL     1     -67.309 -49.821 -32.364  0.00  0.00    +0.000 C 
ATOM      3  C   UNL     1     -66.132 -47.720 -32.522  0.00  0.00    +0.000 C 
ATOM      4  C   UNL     1     -67.109 -49.830 -30.984  0.00  0.00    +0.000 C 
ATOM      5  C   UNL     1     -65.933 -47.727 -31.142  0.00  0.00    +0.000 C 
ATOM      6  C   UNL     1     -66.422 -48.783 -30.375  0.00  0.00    +0.000 C 
ATOM      7  O   UNL     1     -66.051 -48.797 -27.800  0.00  0.00    +0.000 OA
ATOM      8  C   UNL     1     -66.219 -48.790 -28.964  0.00  0.00    +0.000 C 
ENDROOT
BRANCH   1   9
ATOM      9  C   UNL     1     -67.029 -48.759 -34.585  0.00  0.00    +0.000 C 
ATOM     10  C   UNL     1     -65.932 -48.351 -35.537  0.00  0.00    +0.000 C 
ATOM     11  C   UNL     1     -68.350 -49.159 -35.192  0.00  0.00    +0.000 C 
ENDBRANCH   1   9
TORSDOF 1
ENDMDL
