MODEL 1
REMARK VINA RESULT:      -4.3      0.000      0.000
REMARK  Name = 3363_5FluorouracilDeoxyriboside.pdbqt.pdb
REMARK  4 active torsions:
REMARK  status: ('A' for Active; 'I' for Inactive)
REMARK    1  A    between atoms: N_4  and  C1*_13
REMARK    2  A    between atoms: C3*_12  and  O3*_16
REMARK    3  A    between atoms: C4*_15  and  C5*_18
REMARK    4  A    between atoms: C5*_18  and  O5*_19
REMARK                            x       y       z     vdW  Elec       q    Type
REMARK                         _______ _______ _______ _____ _____    ______ ____
ROOT
ATOM      1  F   UNL     1     -67.471 -45.531 -56.504  0.00  0.00    +0.000 F 
ATOM      2  O   UNL     1     -65.312 -48.321 -60.635  0.00  0.00    +0.000 OA
ATOM      3  O   UNL     1     -69.034 -47.148 -58.220  0.00  0.00    +0.000 OA
ATOM      4  N   UNL     1     -65.069 -46.659 -58.962  0.00  0.00    +0.000 N 
ATOM      5  N   UNL     1     -67.151 -47.635 -59.453  0.00  0.00    +0.000 N 
ATOM      6  C   UNL     1     -65.770 -47.593 -59.763  0.00  0.00    +0.000 C 
ATOM      7  C   UNL     1     -65.787 -45.968 -58.053  0.00  0.00    +0.000 C 
ATOM      8  C   UNL     1     -67.029 -45.938 -57.706  0.00  0.00    +0.000 C 
ATOM      9  C   UNL     1     -67.851 -46.938 -58.460  0.00  0.00    +0.000 C 
ATOM     10  H   UNL     1     -67.685 -48.317 -59.973  0.00  0.00    +0.000 HD
ENDROOT
BRANCH   4  13
ATOM     11  O4* UNL     1     -63.131 -45.961 -60.229  0.00  0.00    +0.000 OA
ATOM     12  C3* UNL     1     -61.498 -46.231 -58.607  0.00  0.00    +0.000 A 
ATOM     13  C1* UNL     1     -63.725 -46.432 -59.051  0.00  0.00    +0.000 A 
ATOM     14  C2* UNL     1     -62.741 -46.591 -58.057  0.00  0.00    +0.000 A 
ATOM     15  C4* UNL     1     -61.761 -45.833 -59.969  0.00  0.00    +0.000 A 
BRANCH  12  16
ATOM     16  O3* UNL     1     -60.479 -45.685 -57.877  0.00  0.00    +0.000 OA
ATOM     17  H3* UNL     1     -60.680 -45.667 -56.924  0.00  0.00    +0.000 HD
ENDBRANCH  12  16
BRANCH  15  18
ATOM     18  C5* UNL     1     -60.877 -45.200 -60.864  0.00  0.00    +0.000 C 
BRANCH  18  19
ATOM     19  O5* UNL     1     -60.058 -44.589 -61.714  0.00  0.00    +0.000 OA
ATOM     20  H5* UNL     1     -59.173 -44.992 -61.688  0.00  0.00    +0.000 HD
ENDBRANCH  18  19
ENDBRANCH  15  18
ENDBRANCH   4  13
TORSDOF 4
ENDMDL
MODEL 2
REMARK VINA RESULT:      -4.3     28.109     29.832
REMARK  Name = 3363_5FluorouracilDeoxyriboside.pdbqt.pdb
REMARK  4 active torsions:
REMARK  status: ('A' for Active; 'I' for Inactive)
REMARK    1  A    between atoms: N_4  and  C1*_13
REMARK    2  A    between atoms: C3*_12  and  O3*_16
REMARK    3  A    between atoms: C4*_15  and  C5*_18
REMARK    4  A    between atoms: C5*_18  and  O5*_19
REMARK                            x       y       z     vdW  Elec       q    Type
REMARK                         _______ _______ _______ _____ _____    ______ ____
ROOT
ATOM      1  F   UNL     1     -70.107 -57.107 -36.384  0.00  0.00    +0.000 F 
ATOM      2  O   UNL     1     -67.219 -58.401 -31.968  0.00  0.00    +0.000 OA
ATOM      3  O   UNL     1     -67.567 -58.343 -36.544  0.00  0.00    +0.000 OA
ATOM      4  N   UNL     1     -69.057 -57.251 -32.926  0.00  0.00    +0.000 N 
ATOM      5  N   UNL     1     -67.401 -58.269 -34.249  0.00  0.00    +0.000 N 
ATOM      6  C   UNL     1     -67.854 -57.995 -32.935  0.00  0.00    +0.000 C 
ATOM      7  C   UNL     1     -69.583 -56.918 -34.123  0.00  0.00    +0.000 C 
ATOM      8  C   UNL     1     -69.247 -57.117 -35.352  0.00  0.00    +0.000 C 
ATOM      9  C   UNL     1     -68.008 -57.952 -35.471  0.00  0.00    +0.000 C 
ATOM     10  H   UNL     1     -66.565 -58.833 -34.305  0.00  0.00    +0.000 HD
ENDROOT
BRANCH   4  13
ATOM     11  O4* UNL     1     -70.439 -57.773 -31.010  0.00  0.00    +0.000 OA
ATOM     12  C3* UNL     1     -70.551 -55.673 -30.037  0.00  0.00    +0.000 A 
ATOM     13  C1* UNL     1     -69.710 -56.866 -31.790  0.00  0.00    +0.000 A 
ATOM     14  C2* UNL     1     -69.765 -55.588 -31.200  0.00  0.00    +0.000 A 
ATOM     15  C4* UNL     1     -70.962 -57.052 -29.930  0.00  0.00    +0.000 A 
BRANCH  12  16
ATOM     16  O3* UNL     1     -70.356 -54.888 -28.936  0.00  0.00    +0.000 OA
ATOM     17  H3* UNL     1     -70.844 -54.046 -28.994  0.00  0.00    +0.000 HD
ENDBRANCH  12  16
BRANCH  15  18
ATOM     18  C5* UNL     1     -71.588 -57.678 -28.834  0.00  0.00    +0.000 C 
BRANCH  18  19
ATOM     19  O5* UNL     1     -72.196 -58.260 -27.807  0.00  0.00    +0.000 OA
ATOM     20  H5* UNL     1     -72.673 -57.601 -27.272  0.00  0.00    +0.000 HD
ENDBRANCH  18  19
ENDBRANCH  15  18
ENDBRANCH   4  13
TORSDOF 4
ENDMDL
MODEL 3
REMARK VINA RESULT:      -4.3     43.334     44.418
REMARK  Name = 3363_5FluorouracilDeoxyriboside.pdbqt.pdb
REMARK  4 active torsions:
REMARK  status: ('A' for Active; 'I' for Inactive)
REMARK    1  A    between atoms: N_4  and  C1*_13
REMARK    2  A    between atoms: C3*_12  and  O3*_16
REMARK    3  A    between atoms: C4*_15  and  C5*_18
REMARK    4  A    between atoms: C5*_18  and  O5*_19
REMARK                            x       y       z     vdW  Elec       q    Type
REMARK                         _______ _______ _______ _____ _____    ______ ____
ROOT
ATOM      1  F   UNL     1     -65.232 -59.696 -14.851  0.00  0.00    +0.000 F 
ATOM      2  O   UNL     1     -63.742 -54.657 -13.473  0.00  0.00    +0.000 OA
ATOM      3  O   UNL     1     -64.327 -59.042 -12.251  0.00  0.00    +0.000 OA
ATOM      4  N   UNL     1     -64.306 -56.215 -15.169  0.00  0.00    +0.000 N 
ATOM      5  N   UNL     1     -63.967 -56.873 -12.938  0.00  0.00    +0.000 N 
ATOM      6  C   UNL     1     -63.984 -55.795 -13.856  0.00  0.00    +0.000 C 
ATOM      7  C   UNL     1     -64.541 -57.529 -15.354  0.00  0.00    +0.000 C 
ATOM      8  C   UNL     1     -64.547 -58.570 -14.591  0.00  0.00    +0.000 C 
ATOM      9  C   UNL     1     -64.273 -58.223 -13.160  0.00  0.00    +0.000 C 
ATOM     10  H   UNL     1     -63.780 -56.616 -11.979  0.00  0.00    +0.000 HD
ENDROOT
BRANCH   4  13
ATOM     11  O4* UNL     1     -63.347 -55.207 -17.148  0.00  0.00    +0.000 OA
ATOM     12  C3* UNL     1     -65.127 -53.874 -17.798  0.00  0.00    +0.000 A 
ATOM     13  C1* UNL     1     -64.400 -55.371 -16.239  0.00  0.00    +0.000 A 
ATOM     14  C2* UNL     1     -65.490 -54.570 -16.631  0.00  0.00    +0.000 A 
ATOM     15  C4* UNL     1     -63.782 -54.289 -18.112  0.00  0.00    +0.000 A 
BRANCH  12  16
ATOM     16  O3* UNL     1     -66.019 -53.513 -18.769  0.00  0.00    +0.000 OA
ATOM     17  H3* UNL     1     -66.242 -54.257 -19.357  0.00  0.00    +0.000 HD
ENDBRANCH  12  16
BRANCH  15  18
ATOM     18  C5* UNL     1     -63.057 -54.031 -19.292  0.00  0.00    +0.000 C 
BRANCH  18  19
ATOM     19  O5* UNL     1     -62.391 -53.785 -20.415  0.00  0.00    +0.000 OA
ATOM     20  H5* UNL     1     -61.462 -54.059 -20.331  0.00  0.00    +0.000 HD
ENDBRANCH  18  19
ENDBRANCH  15  18
ENDBRANCH   4  13
TORSDOF 4
ENDMDL
MODEL 4
REMARK VINA RESULT:      -4.2     31.627     33.473
REMARK  Name = 3363_5FluorouracilDeoxyriboside.pdbqt.pdb
REMARK  4 active torsions:
REMARK  status: ('A' for Active; 'I' for Inactive)
REMARK    1  A    between atoms: N_4  and  C1*_13
REMARK    2  A    between atoms: C3*_12  and  O3*_16
REMARK    3  A    between atoms: C4*_15  and  C5*_18
REMARK    4  A    between atoms: C5*_18  and  O5*_19
REMARK                            x       y       z     vdW  Elec       q    Type
REMARK                         _______ _______ _______ _____ _____    ______ ____
ROOT
ATOM      1  F   UNL     1     -70.465 -59.188 -32.100  0.00  0.00    +0.000 F 
ATOM      2  O   UNL     1     -69.996 -54.824 -28.899  0.00  0.00    +0.000 OA
ATOM      3  O   UNL     1     -69.030 -56.880 -32.887  0.00  0.00    +0.000 OA
ATOM      4  N   UNL     1     -71.036 -56.905 -29.354  0.00  0.00    +0.000 N 
ATOM      5  N   UNL     1     -69.616 -55.858 -30.908  0.00  0.00    +0.000 N 
ATOM      6  C   UNL     1     -70.218 -55.783 -29.629  0.00  0.00    +0.000 C 
ATOM      7  C   UNL     1     -71.126 -57.850 -30.313  0.00  0.00    +0.000 C 
ATOM      8  C   UNL     1     -70.624 -58.001 -31.491  0.00  0.00    +0.000 C 
ATOM      9  C   UNL     1     -69.690 -56.888 -31.856  0.00  0.00    +0.000 C 
ATOM     10  H   UNL     1     -68.990 -55.098 -31.132  0.00  0.00    +0.000 HD
ENDROOT
BRANCH   4  13
ATOM     11  O4* UNL     1     -71.235 -57.903 -27.159  0.00  0.00    +0.000 OA
ATOM     12  C3* UNL     1     -73.260 -56.985 -26.506  0.00  0.00    +0.000 A 
ATOM     13  C1* UNL     1     -71.722 -57.084 -28.186  0.00  0.00    +0.000 A 
ATOM     14  C2* UNL     1     -72.949 -56.515 -27.794  0.00  0.00    +0.000 A 
ATOM     15  C4* UNL     1     -72.172 -57.851 -26.120  0.00  0.00    +0.000 A 
BRANCH  12  16
ATOM     16  O3* UNL     1     -73.969 -56.261 -25.589  0.00  0.00    +0.000 OA
ATOM     17  H3* UNL     1     -73.937 -56.660 -24.701  0.00  0.00    +0.000 HD
ENDBRANCH  12  16
BRANCH  15  18
ATOM     18  C5* UNL     1     -71.920 -58.398 -24.847  0.00  0.00    +0.000 C 
BRANCH  18  19
ATOM     19  O5* UNL     1     -71.688 -58.895 -23.637  0.00  0.00    +0.000 OA
ATOM     20  H5* UNL     1     -72.515 -59.208 -23.229  0.00  0.00    +0.000 HD
ENDBRANCH  18  19
ENDBRANCH  15  18
ENDBRANCH   4  13
TORSDOF 4
ENDMDL
MODEL 5
REMARK VINA RESULT:      -4.1     31.810     33.002
REMARK  Name = 3363_5FluorouracilDeoxyriboside.pdbqt.pdb
REMARK  4 active torsions:
REMARK  status: ('A' for Active; 'I' for Inactive)
REMARK    1  A    between atoms: N_4  and  C1*_13
REMARK    2  A    between atoms: C3*_12  and  O3*_16
REMARK    3  A    between atoms: C4*_15  and  C5*_18
REMARK    4  A    between atoms: C5*_18  and  O5*_19
REMARK                            x       y       z     vdW  Elec       q    Type
REMARK                         _______ _______ _______ _____ _____    ______ ____
ROOT
ATOM      1  F   UNL     1     -62.488 -70.039 -85.455  0.00  0.00    +0.000 F 
ATOM      2  O   UNL     1     -59.126 -65.808 -84.909  0.00  0.00    +0.000 OA
ATOM      3  O   UNL     1     -62.158 -68.096 -87.485  0.00  0.00    +0.000 OA
ATOM      4  N   UNL     1     -60.266 -67.635 -83.919  0.00  0.00    +0.000 N 
ATOM      5  N   UNL     1     -60.710 -66.937 -86.120  0.00  0.00    +0.000 N 
ATOM      6  C   UNL     1     -59.950 -66.714 -84.946  0.00  0.00    +0.000 C 
ATOM      7  C   UNL     1     -61.210 -68.558 -84.191  0.00  0.00    +0.000 C 
ATOM      8  C   UNL     1     -61.947 -68.834 -85.214  0.00  0.00    +0.000 C 
ATOM      9  C   UNL     1     -61.645 -67.946 -86.383  0.00  0.00    +0.000 C 
ATOM     10  H   UNL     1     -60.490 -66.328 -86.895  0.00  0.00    +0.000 HD
ENDROOT
BRANCH   4  13
ATOM     11  O4* UNL     1     -58.874 -68.716 -82.261  0.00  0.00    +0.000 OA
ATOM     12  C3* UNL     1     -58.938 -67.102 -80.600  0.00  0.00    +0.000 A 
ATOM     13  C1* UNL     1     -59.668 -67.645 -82.691  0.00  0.00    +0.000 A 
ATOM     14  C2* UNL     1     -59.706 -66.655 -81.690  0.00  0.00    +0.000 A 
ATOM     15  C4* UNL     1     -58.419 -68.395 -80.977  0.00  0.00    +0.000 A 
BRANCH  12  16
ATOM     16  O3* UNL     1     -58.256 -66.264 -79.763  0.00  0.00    +0.000 OA
ATOM     17  H3* UNL     1     -58.222 -65.352 -80.104  0.00  0.00    +0.000 HD
ENDBRANCH  12  16
BRANCH  15  18
ATOM     18  C5* UNL     1     -57.436 -69.153 -80.311  0.00  0.00    +0.000 C 
BRANCH  18  19
ATOM     19  O5* UNL     1     -56.494 -69.857 -79.694  0.00  0.00    +0.000 OA
ATOM     20  H5* UNL     1     -56.060 -70.468 -80.315  0.00  0.00    +0.000 HD
ENDBRANCH  18  19
ENDBRANCH  15  18
ENDBRANCH   4  13
TORSDOF 4
ENDMDL
MODEL 6
REMARK VINA RESULT:      -4.0     18.615     20.332
REMARK  Name = 3363_5FluorouracilDeoxyriboside.pdbqt.pdb
REMARK  4 active torsions:
REMARK  status: ('A' for Active; 'I' for Inactive)
REMARK    1  A    between atoms: N_4  and  C1*_13
REMARK    2  A    between atoms: C3*_12  and  O3*_16
REMARK    3  A    between atoms: C4*_15  and  C5*_18
REMARK    4  A    between atoms: C5*_18  and  O5*_19
REMARK                            x       y       z     vdW  Elec       q    Type
REMARK                         _______ _______ _______ _____ _____    ______ ____
ROOT
ATOM      1  F   UNL     1     -65.562 -61.018 -76.939  0.00  0.00    +0.000 F 
ATOM      2  O   UNL     1     -67.744 -58.356 -72.736  0.00  0.00    +0.000 OA
ATOM      3  O   UNL     1     -67.576 -59.059 -77.268  0.00  0.00    +0.000 OA
ATOM      4  N   UNL     1     -66.401 -60.140 -73.532  0.00  0.00    +0.000 N 
ATOM      5  N   UNL     1     -67.686 -58.807 -74.981  0.00  0.00    +0.000 N 
ATOM      6  C   UNL     1     -67.303 -59.055 -73.641  0.00  0.00    +0.000 C 
ATOM      7  C   UNL     1     -66.047 -60.762 -74.675  0.00  0.00    +0.000 C 
ATOM      8  C   UNL     1     -66.341 -60.611 -75.922  0.00  0.00    +0.000 C 
ATOM      9  C   UNL     1     -67.250 -59.443 -76.152  0.00  0.00    +0.000 C 
ATOM     10  H   UNL     1     -68.298 -58.015 -75.113  0.00  0.00    +0.000 HD
ENDROOT
BRANCH   4  13
ATOM     11  O4* UNL     1     -66.435 -60.241 -71.115  0.00  0.00    +0.000 OA
ATOM     12  C3* UNL     1     -64.586 -61.593 -70.764  0.00  0.00    +0.000 A 
ATOM     13  C1* UNL     1     -65.871 -60.578 -72.352  0.00  0.00    +0.000 A 
ATOM     14  C2* UNL     1     -64.751 -61.407 -72.148  0.00  0.00    +0.000 A 
ATOM     15  C4* UNL     1     -65.655 -60.858 -70.131  0.00  0.00    +0.000 A 
BRANCH  12  16
ATOM     16  O3* UNL     1     -64.061 -62.727 -70.212  0.00  0.00    +0.000 OA
ATOM     17  H3* UNL     1     -64.723 -63.437 -70.132  0.00  0.00    +0.000 HD
ENDBRANCH  12  16
BRANCH  15  18
ATOM     18  C5* UNL     1     -66.040 -60.900 -68.776  0.00  0.00    +0.000 C 
BRANCH  18  19
ATOM     19  O5* UNL     1     -66.403 -60.918 -67.498  0.00  0.00    +0.000 OA
ATOM     20  H5* UNL     1     -65.740 -60.467 -66.946  0.00  0.00    +0.000 HD
ENDBRANCH  18  19
ENDBRANCH  15  18
ENDBRANCH   4  13
TORSDOF 4
ENDMDL
MODEL 7
REMARK VINA RESULT:      -3.9      4.047      4.657
REMARK  Name = 3363_5FluorouracilDeoxyriboside.pdbqt.pdb
REMARK  4 active torsions:
REMARK  status: ('A' for Active; 'I' for Inactive)
REMARK    1  A    between atoms: N_4  and  C1*_13
REMARK    2  A    between atoms: C3*_12  and  O3*_16
REMARK    3  A    between atoms: C4*_15  and  C5*_18
REMARK    4  A    between atoms: C5*_18  and  O5*_19
REMARK                            x       y       z     vdW  Elec       q    Type
REMARK                         _______ _______ _______ _____ _____    ______ ____
ROOT
ATOM      1  F   UNL     1     -63.127 -44.704 -52.362  0.00  0.00    +0.000 F 
ATOM      2  O   UNL     1     -65.334 -48.559 -55.490  0.00  0.00    +0.000 OA
ATOM      3  O   UNL     1     -64.724 -46.785 -51.301  0.00  0.00    +0.000 OA
ATOM      4  N   UNL     1     -64.223 -46.471 -55.321  0.00  0.00    +0.000 N 
ATOM      5  N   UNL     1     -65.073 -47.585 -53.432  0.00  0.00    +0.000 N 
ATOM      6  C   UNL     1     -64.908 -47.612 -54.839  0.00  0.00    +0.000 C 
ATOM      7  C   UNL     1     -63.841 -45.553 -54.410  0.00  0.00    +0.000 C 
ATOM      8  C   UNL     1     -63.946 -45.443 -53.129  0.00  0.00    +0.000 C 
ATOM      9  C   UNL     1     -64.609 -46.636 -52.511  0.00  0.00    +0.000 C 
ATOM     10  H   UNL     1     -65.522 -48.399 -53.038  0.00  0.00    +0.000 HD
ENDROOT
BRANCH   4  13
ATOM     11  O4* UNL     1     -62.678 -46.593 -57.179  0.00  0.00    +0.000 OA
ATOM     12  C3* UNL     1     -64.015 -45.696 -58.845  0.00  0.00    +0.000 A 
ATOM     13  C1* UNL     1     -63.926 -46.258 -56.637  0.00  0.00    +0.000 A 
ATOM     14  C2* UNL     1     -64.748 -45.719 -57.645  0.00  0.00    +0.000 A 
ATOM     15  C4* UNL     1     -62.721 -46.253 -58.536  0.00  0.00    +0.000 A 
BRANCH  12  16
ATOM     16  O3* UNL     1     -64.585 -45.830 -60.080  0.00  0.00    +0.000 OA
ATOM     17  H3* UNL     1     -64.271 -45.152 -60.705  0.00  0.00    +0.000 HD
ENDBRANCH  12  16
BRANCH  15  18
ATOM     18  C5* UNL     1     -61.709 -46.628 -59.442  0.00  0.00    +0.000 C 
BRANCH  18  19
ATOM     19  O5* UNL     1     -60.766 -47.000 -60.301  0.00  0.00    +0.000 OA
ATOM     20  H5* UNL     1     -59.900 -46.647 -60.033  0.00  0.00    +0.000 HD
ENDBRANCH  18  19
ENDBRANCH  15  18
ENDBRANCH   4  13
TORSDOF 4
ENDMDL
MODEL 8
REMARK VINA RESULT:      -3.9     14.404     15.975
REMARK  Name = 3363_5FluorouracilDeoxyriboside.pdbqt.pdb
REMARK  4 active torsions:
REMARK  status: ('A' for Active; 'I' for Inactive)
REMARK    1  A    between atoms: N_4  and  C1*_13
REMARK    2  A    between atoms: C3*_12  and  O3*_16
REMARK    3  A    between atoms: C4*_15  and  C5*_18
REMARK    4  A    between atoms: C5*_18  and  O5*_19
REMARK                            x       y       z     vdW  Elec       q    Type
REMARK                         _______ _______ _______ _____ _____    ______ ____
ROOT
ATOM      1  F   UNL     1     -69.697 -49.090 -76.454  0.00  0.00    +0.000 F 
ATOM      2  O   UNL     1     -73.740 -49.059 -72.825  0.00  0.00    +0.000 OA
ATOM      3  O   UNL     1     -72.242 -50.192 -77.013  0.00  0.00    +0.000 OA
ATOM      4  N   UNL     1     -71.440 -48.738 -73.305  0.00  0.00    +0.000 N 
ATOM      5  N   UNL     1     -72.918 -49.683 -74.871  0.00  0.00    +0.000 N 
ATOM      6  C   UNL     1     -72.771 -49.141 -73.571  0.00  0.00    +0.000 C 
ATOM      7  C   UNL     1     -70.535 -48.921 -74.287  0.00  0.00    +0.000 C 
ATOM      8  C   UNL     1     -70.574 -49.400 -75.484  0.00  0.00    +0.000 C 
ATOM      9  C   UNL     1     -71.960 -49.804 -75.886  0.00  0.00    +0.000 C 
ATOM     10  H   UNL     1     -73.860 -49.947 -75.121  0.00  0.00    +0.000 HD
ENDROOT
BRANCH   4  13
ATOM     11  O4* UNL     1     -71.019 -48.896 -70.928  0.00  0.00    +0.000 OA
ATOM     12  C3* UNL     1     -70.256 -46.744 -70.533  0.00  0.00    +0.000 A 
ATOM     13  C1* UNL     1     -71.033 -48.175 -72.129  0.00  0.00    +0.000 A 
ATOM     14  C2* UNL     1     -70.562 -46.868 -71.899  0.00  0.00    +0.000 A 
ATOM     15  C4* UNL     1     -70.544 -48.027 -69.939  0.00  0.00    +0.000 A 
BRANCH  12  16
ATOM     16  O3* UNL     1     -69.272 -45.927 -70.051  0.00  0.00    +0.000 OA
ATOM     17  H3* UNL     1     -69.491 -44.984 -70.163  0.00  0.00    +0.000 HD
ENDBRANCH  12  16
BRANCH  15  18
ATOM     18  C5* UNL     1     -70.211 -48.466 -68.642  0.00  0.00    +0.000 C 
BRANCH  18  19
ATOM     19  O5* UNL     1     -69.918 -48.876 -67.413  0.00  0.00    +0.000 OA
ATOM     20  H5* UNL     1     -70.310 -49.749 -67.239  0.00  0.00    +0.000 HD
ENDBRANCH  18  19
ENDBRANCH  15  18
ENDBRANCH   4  13
TORSDOF 4
ENDMDL
MODEL 9
REMARK VINA RESULT:      -3.9     21.345     22.367
REMARK  Name = 3363_5FluorouracilDeoxyriboside.pdbqt.pdb
REMARK  4 active torsions:
REMARK  status: ('A' for Active; 'I' for Inactive)
REMARK    1  A    between atoms: N_4  and  C1*_13
REMARK    2  A    between atoms: C3*_12  and  O3*_16
REMARK    3  A    between atoms: C4*_15  and  C5*_18
REMARK    4  A    between atoms: C5*_18  and  O5*_19
REMARK                            x       y       z     vdW  Elec       q    Type
REMARK                         _______ _______ _______ _____ _____    ______ ____
ROOT
ATOM      1  F   UNL     1     -66.985 -49.958 -33.688  0.00  0.00    +0.000 F 
ATOM      2  O   UNL     1     -67.326 -46.836 -38.120  0.00  0.00    +0.000 OA
ATOM      3  O   UNL     1     -69.457 -49.016 -34.690  0.00  0.00    +0.000 OA
ATOM      4  N   UNL     1     -65.986 -47.832 -36.437  0.00  0.00    +0.000 N 
ATOM      5  N   UNL     1     -68.335 -47.867 -36.340  0.00  0.00    +0.000 N 
ATOM      6  C   UNL     1     -67.194 -47.449 -37.068  0.00  0.00    +0.000 C 
ATOM      7  C   UNL     1     -66.087 -48.512 -35.277  0.00  0.00    +0.000 C 
ATOM      8  C   UNL     1     -67.066 -48.930 -34.549  0.00  0.00    +0.000 C 
ATOM      9  C   UNL     1     -68.398 -48.625 -35.163  0.00  0.00    +0.000 C 
ATOM     10  H   UNL     1     -69.222 -47.651 -36.773  0.00  0.00    +0.000 HD
ENDROOT
BRANCH   4  13
ATOM     11  O4* UNL     1     -64.506 -47.458 -38.314  0.00  0.00    +0.000 OA
ATOM     12  C3* UNL     1     -62.526 -47.088 -37.169  0.00  0.00    +0.000 A 
ATOM     13  C1* UNL     1     -64.744 -47.561 -36.938  0.00  0.00    +0.000 A 
ATOM     14  C2* UNL     1     -63.547 -47.329 -36.234  0.00  0.00    +0.000 A 
ATOM     15  C4* UNL     1     -63.145 -47.168 -38.470  0.00  0.00    +0.000 A 
BRANCH  12  16
ATOM     16  O3* UNL     1     -61.456 -46.273 -36.926  0.00  0.00    +0.000 OA
ATOM     17  H3* UNL     1     -61.706 -45.482 -36.414  0.00  0.00    +0.000 HD
ENDBRANCH  12  16
BRANCH  15  18
ATOM     18  C5* UNL     1     -62.587 -46.802 -39.711  0.00  0.00    +0.000 C 
BRANCH  18  19
ATOM     19  O5* UNL     1     -62.069 -46.438 -40.879  0.00  0.00    +0.000 OA
ATOM     20  H5* UNL     1     -61.171 -46.084 -40.761  0.00  0.00    +0.000 HD
ENDBRANCH  18  19
ENDBRANCH  15  18
ENDBRANCH   4  13
TORSDOF 4
ENDMDL
