MODEL 1
REMARK VINA RESULT:      -3.7      0.000      0.000
REMARK  Name = 3385_5Fluorouracil.pdbqt.pdb
REMARK  0 active torsions:
REMARK  status: ('A' for Active; 'I' for Inactive)
REMARK                            x       y       z     vdW  Elec       q    Type
REMARK                         _______ _______ _______ _____ _____    ______ ____
ROOT
ATOM      1  F   UNL     1     -61.981 -47.031 -61.737  0.00  0.00    +0.000 F 
ATOM      2  O   UNL     1     -64.575 -47.159 -60.605  0.00  0.00    +0.000 OA
ATOM      3  O   UNL     1     -62.905 -45.744 -56.545  0.00  0.00    +0.000 OA
ATOM      4  N   UNL     1     -63.723 -46.519 -58.565  0.00  0.00    +0.000 N 
ATOM      5  N   UNL     1     -61.445 -46.183 -58.272  0.00  0.00    +0.000 N 
ATOM      6  C   UNL     1     -63.600 -46.917 -59.904  0.00  0.00    +0.000 C 
ATOM      7  C   UNL     1     -62.703 -46.118 -57.691  0.00  0.00    +0.000 C 
ATOM      8  C   UNL     1     -62.188 -47.005 -60.410  0.00  0.00    +0.000 C 
ATOM      9  C   UNL     1     -61.324 -46.604 -59.539  0.00  0.00    +0.000 C 
ATOM     10  H   UNL     1     -64.663 -46.455 -58.205  0.00  0.00    +0.000 HD
ATOM     11  H   UNL     1     -60.639 -45.909 -57.724  0.00  0.00    +0.000 HD
ENDROOT
TORSDOF 0
ENDMDL
MODEL 2
REMARK VINA RESULT:      -3.5      1.570      2.220
REMARK  Name = 3385_5Fluorouracil.pdbqt.pdb
REMARK  0 active torsions:
REMARK  status: ('A' for Active; 'I' for Inactive)
REMARK                            x       y       z     vdW  Elec       q    Type
REMARK                         _______ _______ _______ _____ _____    ______ ____
ROOT
ATOM      1  F   UNL     1     -63.182 -47.295 -61.131  0.00  0.00    +0.000 F 
ATOM      2  O   UNL     1     -60.829 -46.698 -59.671  0.00  0.00    +0.000 OA
ATOM      3  O   UNL     1     -63.335 -45.997 -55.862  0.00  0.00    +0.000 OA
ATOM      4  N   UNL     1     -62.093 -46.282 -57.793  0.00  0.00    +0.000 N 
ATOM      5  N   UNL     1     -64.411 -46.396 -57.860  0.00  0.00    +0.000 N 
ATOM      6  C   UNL     1     -61.933 -46.561 -59.157  0.00  0.00    +0.000 C 
ATOM      7  C   UNL     1     -63.289 -46.204 -57.066  0.00  0.00    +0.000 C 
ATOM      8  C   UNL     1     -63.215 -46.696 -59.929  0.00  0.00    +0.000 C 
ATOM      9  C   UNL     1     -64.258 -46.621 -59.173  0.00  0.00    +0.000 C 
ATOM     10  H   UNL     1     -61.244 -46.186 -57.256  0.00  0.00    +0.000 HD
ATOM     11  H   UNL     1     -65.326 -46.364 -57.429  0.00  0.00    +0.000 HD
ENDROOT
TORSDOF 0
ENDMDL
MODEL 3
REMARK VINA RESULT:      -3.5      2.735      3.193
REMARK  Name = 3385_5Fluorouracil.pdbqt.pdb
REMARK  0 active torsions:
REMARK  status: ('A' for Active; 'I' for Inactive)
REMARK                            x       y       z     vdW  Elec       q    Type
REMARK                         _______ _______ _______ _____ _____    ______ ____
ROOT
ATOM      1  F   UNL     1     -65.605 -47.281 -57.761  0.00  0.00    +0.000 F 
ATOM      2  O   UNL     1     -65.891 -48.015 -60.482  0.00  0.00    +0.000 OA
ATOM      3  O   UNL     1     -61.624 -46.502 -61.368  0.00  0.00    +0.000 OA
ATOM      4  N   UNL     1     -63.787 -47.195 -60.930  0.00  0.00    +0.000 N 
ATOM      5  N   UNL     1     -62.525 -46.168 -59.274  0.00  0.00    +0.000 N 
ATOM      6  C   UNL     1     -64.899 -47.405 -60.101  0.00  0.00    +0.000 C 
ATOM      7  C   UNL     1     -62.561 -46.607 -60.590  0.00  0.00    +0.000 C 
ATOM      8  C   UNL     1     -64.769 -46.840 -58.715  0.00  0.00    +0.000 C 
ATOM      9  C   UNL     1     -63.604 -46.331 -58.495  0.00  0.00    +0.000 C 
ATOM     10  H   UNL     1     -63.855 -47.565 -61.867  0.00  0.00    +0.000 HD
ATOM     11  H   UNL     1     -61.680 -45.733 -58.927  0.00  0.00    +0.000 HD
ENDROOT
TORSDOF 0
ENDMDL
MODEL 4
REMARK VINA RESULT:      -3.5      2.651      3.059
REMARK  Name = 3385_5Fluorouracil.pdbqt.pdb
REMARK  0 active torsions:
REMARK  status: ('A' for Active; 'I' for Inactive)
REMARK                            x       y       z     vdW  Elec       q    Type
REMARK                         _______ _______ _______ _____ _____    ______ ____
ROOT
ATOM      1  F   UNL     1     -64.472 -47.799 -60.137  0.00  0.00    +0.000 F 
ATOM      2  O   UNL     1     -64.494 -45.048 -59.464  0.00  0.00    +0.000 OA
ATOM      3  O   UNL     1     -60.343 -44.509 -61.402  0.00  0.00    +0.000 OA
ATOM      4  N   UNL     1     -62.393 -44.802 -60.371  0.00  0.00    +0.000 N 
ATOM      5  N   UNL     1     -61.243 -46.623 -61.236  0.00  0.00    +0.000 N 
ATOM      6  C   UNL     1     -63.496 -45.561 -59.954  0.00  0.00    +0.000 C 
ATOM      7  C   UNL     1     -61.243 -45.251 -61.034  0.00  0.00    +0.000 C 
ATOM      8  C   UNL     1     -63.363 -47.042 -60.173  0.00  0.00    +0.000 C 
ATOM      9  C   UNL     1     -62.278 -47.354 -60.799  0.00  0.00    +0.000 C 
ATOM     10  H   UNL     1     -62.462 -43.805 -60.232  0.00  0.00    +0.000 HD
ATOM     11  H   UNL     1     -60.457 -47.047 -61.712  0.00  0.00    +0.000 HD
ENDROOT
TORSDOF 0
ENDMDL
MODEL 5
REMARK VINA RESULT:      -3.4     34.065     34.963
REMARK  Name = 3385_5Fluorouracil.pdbqt.pdb
REMARK  0 active torsions:
REMARK  status: ('A' for Active; 'I' for Inactive)
REMARK                            x       y       z     vdW  Elec       q    Type
REMARK                         _______ _______ _______ _____ _____    ______ ____
ROOT
ATOM      1  F   UNL     1     -51.252 -58.610 -89.768  0.00  0.00    +0.000 F 
ATOM      2  O   UNL     1     -52.457 -60.237 -87.786  0.00  0.00    +0.000 OA
ATOM      3  O   UNL     1     -55.566 -61.722 -90.854  0.00  0.00    +0.000 OA
ATOM      4  N   UNL     1     -54.046 -60.920 -89.305  0.00  0.00    +0.000 N 
ATOM      5  N   UNL     1     -54.086 -60.065 -91.462  0.00  0.00    +0.000 N 
ATOM      6  C   UNL     1     -52.965 -60.127 -88.896  0.00  0.00    +0.000 C 
ATOM      7  C   UNL     1     -54.649 -60.964 -90.569  0.00  0.00    +0.000 C 
ATOM      8  C   UNL     1     -52.472 -59.151 -89.926  0.00  0.00    +0.000 C 
ATOM      9  C   UNL     1     -53.079 -59.277 -91.058  0.00  0.00    +0.000 C 
ATOM     10  H   UNL     1     -54.394 -61.581 -88.627  0.00  0.00    +0.000 HD
ATOM     11  H   UNL     1     -54.447 -60.023 -92.407  0.00  0.00    +0.000 HD
ENDROOT
TORSDOF 0
ENDMDL
MODEL 6
REMARK VINA RESULT:      -3.4      2.304      2.870
REMARK  Name = 3385_5Fluorouracil.pdbqt.pdb
REMARK  0 active torsions:
REMARK  status: ('A' for Active; 'I' for Inactive)
REMARK                            x       y       z     vdW  Elec       q    Type
REMARK                         _______ _______ _______ _____ _____    ______ ____
ROOT
ATOM      1  F   UNL     1     -60.707 -46.094 -58.616  0.00  0.00    +0.000 F 
ATOM      2  O   UNL     1     -61.490 -46.782 -61.250  0.00  0.00    +0.000 OA
ATOM      3  O   UNL     1     -65.926 -46.665 -59.993  0.00  0.00    +0.000 OA
ATOM      4  N   UNL     1     -63.697 -46.790 -60.598  0.00  0.00    +0.000 N 
ATOM      5  N   UNL     1     -64.294 -46.400 -58.389  0.00  0.00    +0.000 N 
ATOM      6  C   UNL     1     -62.319 -46.713 -60.351  0.00  0.00    +0.000 C 
ATOM      7  C   UNL     1     -64.745 -46.624 -59.682  0.00  0.00    +0.000 C 
ATOM      8  C   UNL     1     -61.946 -46.523 -58.908  0.00  0.00    +0.000 C 
ATOM      9  C   UNL     1     -62.976 -46.369 -58.146  0.00  0.00    +0.000 C 
ATOM     10  H   UNL     1     -63.970 -46.919 -61.562  0.00  0.00    +0.000 HD
ATOM     11  H   UNL     1     -64.974 -46.262 -57.652  0.00  0.00    +0.000 HD
ENDROOT
TORSDOF 0
ENDMDL
MODEL 7
REMARK VINA RESULT:      -3.3      2.366      3.731
REMARK  Name = 3385_5Fluorouracil.pdbqt.pdb
REMARK  0 active torsions:
REMARK  status: ('A' for Active; 'I' for Inactive)
REMARK                            x       y       z     vdW  Elec       q    Type
REMARK                         _______ _______ _______ _____ _____    ______ ____
ROOT
ATOM      1  F   UNL     1     -65.239 -45.993 -57.488  0.00  0.00    +0.000 F 
ATOM      2  O   UNL     1     -62.432 -45.936 -57.117  0.00  0.00    +0.000 OA
ATOM      3  O   UNL     1     -61.795 -47.020 -61.555  0.00  0.00    +0.000 OA
ATOM      4  N   UNL     1     -62.123 -46.545 -59.315  0.00  0.00    +0.000 N 
ATOM      5  N   UNL     1     -63.933 -46.991 -60.699  0.00  0.00    +0.000 N 
ATOM      6  C   UNL     1     -62.913 -46.306 -58.181  0.00  0.00    +0.000 C 
ATOM      7  C   UNL     1     -62.554 -46.870 -60.609  0.00  0.00    +0.000 C 
ATOM      8  C   UNL     1     -64.386 -46.521 -58.381  0.00  0.00    +0.000 C 
ATOM      9  C   UNL     1     -64.684 -46.804 -59.604  0.00  0.00    +0.000 C 
ATOM     10  H   UNL     1     -61.130 -46.407 -59.202  0.00  0.00    +0.000 HD
ATOM     11  H   UNL     1     -64.346 -47.219 -61.594  0.00  0.00    +0.000 HD
ENDROOT
TORSDOF 0
ENDMDL
MODEL 8
REMARK VINA RESULT:      -3.3      3.089      3.565
REMARK  Name = 3385_5Fluorouracil.pdbqt.pdb
REMARK  0 active torsions:
REMARK  status: ('A' for Active; 'I' for Inactive)
REMARK                            x       y       z     vdW  Elec       q    Type
REMARK                         _______ _______ _______ _____ _____    ______ ____
ROOT
ATOM      1  F   UNL     1     -61.605 -47.061 -57.926  0.00  0.00    +0.000 F 
ATOM      2  O   UNL     1     -61.920 -47.612 -60.687  0.00  0.00    +0.000 OA
ATOM      3  O   UNL     1     -60.076 -43.518 -61.744  0.00  0.00    +0.000 OA
ATOM      4  N   UNL     1     -61.063 -45.539 -61.204  0.00  0.00    +0.000 N 
ATOM      5  N   UNL     1     -60.479 -44.035 -59.536  0.00  0.00    +0.000 N 
ATOM      6  C   UNL     1     -61.534 -46.511 -60.311  0.00  0.00    +0.000 C 
ATOM      7  C   UNL     1     -60.504 -44.291 -60.899  0.00  0.00    +0.000 C 
ATOM      8  C   UNL     1     -61.512 -46.104 -58.864  0.00  0.00    +0.000 C 
ATOM      9  C   UNL     1     -60.969 -44.947 -58.684  0.00  0.00    +0.000 C 
ATOM     10  H   UNL     1     -61.071 -45.792 -62.181  0.00  0.00    +0.000 HD
ATOM     11  H   UNL     1     -60.089 -43.160 -59.210  0.00  0.00    +0.000 HD
ENDROOT
TORSDOF 0
ENDMDL
MODEL 9
REMARK VINA RESULT:      -3.3     33.999     34.884
REMARK  Name = 3385_5Fluorouracil.pdbqt.pdb
REMARK  0 active torsions:
REMARK  status: ('A' for Active; 'I' for Inactive)
REMARK                            x       y       z     vdW  Elec       q    Type
REMARK                         _______ _______ _______ _____ _____    ______ ____
ROOT
ATOM      1  F   UNL     1     -54.823 -61.007 -88.821  0.00  0.00    +0.000 F 
ATOM      2  O   UNL     1     -52.352 -60.259 -87.657  0.00  0.00    +0.000 OA
ATOM      3  O   UNL     1     -51.231 -57.918 -91.470  0.00  0.00    +0.000 OA
ATOM      4  N   UNL     1     -51.770 -59.151 -89.589  0.00  0.00    +0.000 N 
ATOM      5  N   UNL     1     -53.162 -59.174 -91.447  0.00  0.00    +0.000 N 
ATOM      6  C   UNL     1     -52.598 -59.987 -88.826  0.00  0.00    +0.000 C 
ATOM      7  C   UNL     1     -51.989 -58.683 -90.892  0.00  0.00    +0.000 C 
ATOM      8  C   UNL     1     -53.811 -60.503 -89.547  0.00  0.00    +0.000 C 
ATOM      9  C   UNL     1     -53.931 -60.007 -90.732  0.00  0.00    +0.000 C 
ATOM     10  H   UNL     1     -50.949 -58.794 -89.124  0.00  0.00    +0.000 HD
ATOM     11  H   UNL     1     -53.414 -58.891 -92.385  0.00  0.00    +0.000 HD
ENDROOT
TORSDOF 0
ENDMDL
