MODEL 1
REMARK VINA RESULT:      -6.6      0.000      0.000
REMARK  Name = 342374_SipholenolA.pdbqt.pdb
REMARK  5 active torsions:
REMARK  status: ('A' for Active; 'I' for Inactive)
REMARK    1  A    between atoms: C_3  and  C_20
REMARK    2  A    between atoms: C_4  and  O_16
REMARK    3  A    between atoms: C_13  and  O_18
REMARK    4  A    between atoms: C_21  and  C_25
REMARK    5  A    between atoms: C_26  and  O_36
REMARK                            x       y       z     vdW  Elec       q    Type
REMARK                         _______ _______ _______ _____ _____    ______ ____
ROOT
ATOM      1  O   UNL     1     -55.417 -59.916 -65.353  0.00  0.00    +0.000 OA
ATOM      2  C   UNL     1     -55.901 -58.759 -63.062  0.00  0.00    +0.000 C 
ATOM      3  C   UNL     1     -55.785 -57.438 -62.296  0.00  0.00    +0.000 C 
ATOM      4  C   UNL     1     -54.515 -56.612 -62.403  0.00  0.00    +0.000 C 
ATOM      5  C   UNL     1     -55.199 -58.837 -64.488  0.00  0.00    +0.000 C 
ATOM      6  C   UNL     1     -57.305 -59.021 -63.417  0.00  0.00    +0.000 C 
ATOM      7  C   UNL     1     -53.795 -57.011 -63.597  0.00  0.00    +0.000 C 
ATOM      8  C   UNL     1     -54.048 -58.040 -64.647  0.00  0.00    +0.000 C 
ATOM      9  C   UNL     1     -55.336 -59.914 -62.191  0.00  0.00    +0.000 C 
ATOM     10  C   UNL     1     -58.159 -59.531 -64.552  0.00  0.00    +0.000 C 
ATOM     11  C   UNL     1     -56.428 -59.792 -66.406  0.00  0.00    +0.000 C 
ATOM     12  C   UNL     1     -54.834 -55.110 -62.416  0.00  0.00    +0.000 C 
ATOM     13  C   UNL     1     -57.879 -59.966 -65.865  0.00  0.00    +0.000 C 
ATOM     14  C   UNL     1     -56.338 -58.424 -67.143  0.00  0.00    +0.000 C 
ATOM     15  C   UNL     1     -56.176 -60.947 -67.420  0.00  0.00    +0.000 C 
ENDROOT
BRANCH   4  16
ATOM     16  O   UNL     1     -53.712 -56.822 -61.269  0.00  0.00    +0.000 OA
ATOM     17  H   UNL     1     -53.566 -57.784 -61.313  0.00  0.00    +0.000 HD
ENDBRANCH   4  16
BRANCH  13  18
ATOM     18  O   UNL     1     -58.899 -60.541 -66.617  0.00  0.00    +0.000 OA
ATOM     19  H   UNL     1     -58.557 -61.252 -67.198  0.00  0.00    +0.000 HD
ENDBRANCH  13  18
BRANCH   3  20
ATOM     20  C   UNL     1     -56.771 -57.102 -61.302  0.00  0.00    +0.000 C 
ATOM     21  C   UNL     1     -57.829 -56.739 -60.256  0.00  0.00    +0.000 C 
BRANCH  21  25
ATOM     22  C   UNL     1     -59.775 -58.169 -57.594  0.00  0.00    +0.000 C 
ATOM     23  C   UNL     1     -58.818 -56.973 -57.848  0.00  0.00    +0.000 C 
ATOM     24  C   UNL     1     -61.265 -58.143 -57.779  0.00  0.00    +0.000 C 
ATOM     25  C   UNL     1     -58.826 -56.394 -59.283  0.00  0.00    +0.000 C 
ATOM     26  C   UNL     1     -61.972 -59.298 -57.080  0.00  0.00    +0.000 C 
ATOM     27  C   UNL     1     -59.507 -59.322 -56.797  0.00  0.00    +0.000 C 
ATOM     28  C   UNL     1     -60.825 -59.980 -56.492  0.00  0.00    +0.000 C 
ATOM     29  C   UNL     1     -61.794 -57.114 -58.579  0.00  0.00    +0.000 C 
ATOM     30  C   UNL     1     -59.965 -55.592 -59.731  0.00  0.00    +0.000 C 
ATOM     31  C   UNL     1     -57.355 -57.453 -57.516  0.00  0.00    +0.000 C 
ATOM     32  C   UNL     1     -59.159 -55.846 -56.814  0.00  0.00    +0.000 C 
ATOM     33  C   UNL     1     -61.136 -56.030 -59.389  0.00  0.00    +0.000 C 
ATOM     34  C   UNL     1     -62.808 -60.134 -58.039  0.00  0.00    +0.000 C 
ATOM     35  C   UNL     1     -59.906 -54.617 -60.877  0.00  0.00    +0.000 C 
BRANCH  26  36
ATOM     36  O   UNL     1     -62.836 -58.812 -56.086  0.00  0.00    +0.000 OA
ATOM     37  H   UNL     1     -62.214 -58.310 -55.531  0.00  0.00    +0.000 HD
ENDBRANCH  26  36
ENDBRANCH  21  25
ENDBRANCH   3  20
TORSDOF 5
ENDMDL
MODEL 2
REMARK VINA RESULT:      -6.6      2.273      8.852
REMARK  Name = 342374_SipholenolA.pdbqt.pdb
REMARK  5 active torsions:
REMARK  status: ('A' for Active; 'I' for Inactive)
REMARK    1  A    between atoms: C_3  and  C_20
REMARK    2  A    between atoms: C_4  and  O_16
REMARK    3  A    between atoms: C_13  and  O_18
REMARK    4  A    between atoms: C_21  and  C_25
REMARK    5  A    between atoms: C_26  and  O_36
REMARK                            x       y       z     vdW  Elec       q    Type
REMARK                         _______ _______ _______ _____ _____    ______ ____
ROOT
ATOM      1  O   UNL     1     -59.955 -56.792 -55.903  0.00  0.00    +0.000 OA
ATOM      2  C   UNL     1     -59.884 -57.347 -58.454  0.00  0.00    +0.000 C 
ATOM      3  C   UNL     1     -59.384 -56.848 -59.813  0.00  0.00    +0.000 C 
ATOM      4  C   UNL     1     -59.514 -55.378 -60.173  0.00  0.00    +0.000 C 
ATOM      5  C   UNL     1     -59.723 -56.361 -57.214  0.00  0.00    +0.000 C 
ATOM      6  C   UNL     1     -59.089 -58.502 -58.010  0.00  0.00    +0.000 C 
ATOM      7  C   UNL     1     -59.685 -54.610 -58.955  0.00  0.00    +0.000 C 
ATOM      8  C   UNL     1     -59.781 -54.986 -57.515  0.00  0.00    +0.000 C 
ATOM      9  C   UNL     1     -61.385 -57.731 -58.564  0.00  0.00    +0.000 C 
ATOM     10  C   UNL     1     -58.442 -59.084 -56.778  0.00  0.00    +0.000 C 
ATOM     11  C   UNL     1     -58.820 -57.218 -55.082  0.00  0.00    +0.000 C 
ATOM     12  C   UNL     1     -58.295 -54.897 -60.974  0.00  0.00    +0.000 C 
ATOM     13  C   UNL     1     -58.328 -58.653 -55.439  0.00  0.00    +0.000 C 
ATOM     14  C   UNL     1     -57.614 -56.240 -55.202  0.00  0.00    +0.000 C 
ATOM     15  C   UNL     1     -59.312 -57.257 -53.605  0.00  0.00    +0.000 C 
ENDROOT
BRANCH   4  16
ATOM     16  O   UNL     1     -60.623 -55.190 -61.017  0.00  0.00    +0.000 OA
ATOM     17  H   UNL     1     -61.247 -54.745 -60.415  0.00  0.00    +0.000 HD
ENDBRANCH   4  16
BRANCH  13  18
ATOM     18  O   UNL     1     -57.796 -59.523 -54.493  0.00  0.00    +0.000 OA
ATOM     19  H   UNL     1     -57.716 -59.093 -53.616  0.00  0.00    +0.000 HD
ENDBRANCH  13  18
BRANCH   3  20
ATOM     20  C   UNL     1     -59.014 -57.799 -60.829  0.00  0.00    +0.000 C 
ATOM     21  C   UNL     1     -58.633 -58.806 -61.919  0.00  0.00    +0.000 C 
BRANCH  21  25
ATOM     22  C   UNL     1     -56.177 -59.399 -64.475  0.00  0.00    +0.000 C 
ATOM     23  C   UNL     1     -56.816 -60.122 -63.259  0.00  0.00    +0.000 C 
ATOM     24  C   UNL     1     -56.692 -59.451 -65.885  0.00  0.00    +0.000 C 
ATOM     25  C   UNL     1     -58.283 -59.747 -62.944  0.00  0.00    +0.000 C 
ATOM     26  C   UNL     1     -55.661 -58.998 -66.912  0.00  0.00    +0.000 C 
ATOM     27  C   UNL     1     -54.838 -58.914 -64.573  0.00  0.00    +0.000 C 
ATOM     28  C   UNL     1     -54.542 -58.687 -66.030  0.00  0.00    +0.000 C 
ATOM     29  C   UNL     1     -58.026 -59.858 -66.066  0.00  0.00    +0.000 C 
ATOM     30  C   UNL     1     -59.355 -60.236 -63.812  0.00  0.00    +0.000 C 
ATOM     31  C   UNL     1     -55.938 -59.794 -61.993  0.00  0.00    +0.000 C 
ATOM     32  C   UNL     1     -56.697 -61.667 -63.492  0.00  0.00    +0.000 C 
ATOM     33  C   UNL     1     -59.117 -60.194 -65.085  0.00  0.00    +0.000 C 
ATOM     34  C   UNL     1     -56.161 -57.841 -67.766  0.00  0.00    +0.000 C 
ATOM     35  C   UNL     1     -60.796 -60.342 -63.388  0.00  0.00    +0.000 C 
BRANCH  26  36
ATOM     36  O   UNL     1     -55.342 -60.052 -67.782  0.00  0.00    +0.000 OA
ATOM     37  H   UNL     1     -56.010 -59.925 -68.479  0.00  0.00    +0.000 HD
ENDBRANCH  26  36
ENDBRANCH  21  25
ENDBRANCH   3  20
TORSDOF 5
ENDMDL
MODEL 3
REMARK VINA RESULT:      -6.4     27.418     33.838
REMARK  Name = 342374_SipholenolA.pdbqt.pdb
REMARK  5 active torsions:
REMARK  status: ('A' for Active; 'I' for Inactive)
REMARK    1  A    between atoms: C_3  and  C_20
REMARK    2  A    between atoms: C_4  and  O_16
REMARK    3  A    between atoms: C_13  and  O_18
REMARK    4  A    between atoms: C_21  and  C_25
REMARK    5  A    between atoms: C_26  and  O_36
REMARK                            x       y       z     vdW  Elec       q    Type
REMARK                         _______ _______ _______ _____ _____    ______ ____
ROOT
ATOM      1  O   UNL     1     -73.582 -58.803 -26.489  0.00  0.00    +0.000 OA
ATOM      2  C   UNL     1     -72.693 -58.562 -28.933  0.00  0.00    +0.000 C 
ATOM      3  C   UNL     1     -71.792 -57.721 -29.842  0.00  0.00    +0.000 C 
ATOM      4  C   UNL     1     -71.822 -56.206 -29.743  0.00  0.00    +0.000 C 
ATOM      5  C   UNL     1     -72.950 -58.017 -27.460  0.00  0.00    +0.000 C 
ATOM      6  C   UNL     1     -72.064 -59.863 -28.654  0.00  0.00    +0.000 C 
ATOM      7  C   UNL     1     -72.383 -55.831 -28.460  0.00  0.00    +0.000 C 
ATOM      8  C   UNL     1     -72.928 -56.616 -27.314  0.00  0.00    +0.000 C 
ATOM      9  C   UNL     1     -74.075 -58.762 -29.614  0.00  0.00    +0.000 C 
ATOM     10  C   UNL     1     -71.836 -60.845 -27.532  0.00  0.00    +0.000 C 
ATOM     11  C   UNL     1     -72.762 -59.556 -25.537  0.00  0.00    +0.000 C 
ATOM     12  C   UNL     1     -70.418 -55.613 -29.936  0.00  0.00    +0.000 C 
ATOM     13  C   UNL     1     -72.161 -60.852 -26.158  0.00  0.00    +0.000 C 
ATOM     14  C   UNL     1     -71.596 -58.697 -24.966  0.00  0.00    +0.000 C 
ATOM     15  C   UNL     1     -73.700 -59.996 -24.374  0.00  0.00    +0.000 C 
ENDROOT
BRANCH   4  16
ATOM     16  O   UNL     1     -72.606 -55.674 -30.781  0.00  0.00    +0.000 OA
ATOM     17  H   UNL     1     -72.260 -54.765 -30.835  0.00  0.00    +0.000 HD
ENDBRANCH   4  16
BRANCH  13  18
ATOM     18  O   UNL     1     -71.947 -62.011 -25.420  0.00  0.00    +0.000 OA
ATOM     19  H   UNL     1     -71.499 -62.699 -25.956  0.00  0.00    +0.000 HD
ENDBRANCH  13  18
BRANCH   3  20
ATOM     20  C   UNL     1     -71.103 -58.349 -30.941  0.00  0.00    +0.000 C 
ATOM     21  C   UNL     1     -70.385 -59.019 -32.116  0.00  0.00    +0.000 C 
BRANCH  21  25
ATOM     22  C   UNL     1     -68.478 -58.250 -35.063  0.00  0.00    +0.000 C 
ATOM     23  C   UNL     1     -68.379 -59.129 -33.786  0.00  0.00    +0.000 C 
ATOM     24  C   UNL     1     -69.080 -58.682 -36.369  0.00  0.00    +0.000 C 
ATOM     25  C   UNL     1     -69.721 -59.650 -33.220  0.00  0.00    +0.000 C 
ATOM     26  C   UNL     1     -68.679 -57.785 -37.535  0.00  0.00    +0.000 C 
ATOM     27  C   UNL     1     -67.704 -57.089 -35.362  0.00  0.00    +0.000 C 
ATOM     28  C   UNL     1     -67.827 -56.828 -36.838  0.00  0.00    +0.000 C 
ATOM     29  C   UNL     1     -69.939 -59.795 -36.343  0.00  0.00    +0.000 C 
ATOM     30  C   UNL     1     -70.430 -60.724 -33.917  0.00  0.00    +0.000 C 
ATOM     31  C   UNL     1     -67.669 -58.272 -32.671  0.00  0.00    +0.000 C 
ATOM     32  C   UNL     1     -67.424 -60.333 -34.095  0.00  0.00    +0.000 C 
ATOM     33  C   UNL     1     -70.463 -60.635 -35.209  0.00  0.00    +0.000 C 
ATOM     34  C   UNL     1     -69.883 -57.188 -38.250  0.00  0.00    +0.000 C 
ATOM     35  C   UNL     1     -71.454 -61.615 -33.265  0.00  0.00    +0.000 C 
BRANCH  26  36
ATOM     36  O   UNL     1     -67.949 -58.516 -38.485  0.00  0.00    +0.000 OA
ATOM     37  H   UNL     1     -67.326 -57.837 -38.801  0.00  0.00    +0.000 HD
ENDBRANCH  26  36
ENDBRANCH  21  25
ENDBRANCH   3  20
TORSDOF 5
ENDMDL
MODEL 4
REMARK VINA RESULT:      -6.3     32.018     37.353
REMARK  Name = 342374_SipholenolA.pdbqt.pdb
REMARK  5 active torsions:
REMARK  status: ('A' for Active; 'I' for Inactive)
REMARK    1  A    between atoms: C_3  and  C_20
REMARK    2  A    between atoms: C_4  and  O_16
REMARK    3  A    between atoms: C_13  and  O_18
REMARK    4  A    between atoms: C_21  and  C_25
REMARK    5  A    between atoms: C_26  and  O_36
REMARK                            x       y       z     vdW  Elec       q    Type
REMARK                         _______ _______ _______ _____ _____    ______ ____
ROOT
ATOM      1  O   UNL     1     -70.397 -55.833 -32.205  0.00  0.00    +0.000 OA
ATOM      2  C   UNL     1     -71.487 -55.554 -29.848  0.00  0.00    +0.000 C 
ATOM      3  C   UNL     1     -72.741 -55.065 -29.118  0.00  0.00    +0.000 C 
ATOM      4  C   UNL     1     -73.400 -53.763 -29.536  0.00  0.00    +0.000 C 
ATOM      5  C   UNL     1     -71.393 -55.255 -31.409  0.00  0.00    +0.000 C 
ATOM      6  C   UNL     1     -71.427 -57.024 -29.832  0.00  0.00    +0.000 C 
ATOM      7  C   UNL     1     -72.973 -53.433 -30.882  0.00  0.00    +0.000 C 
ATOM      8  C   UNL     1     -72.042 -54.084 -31.847  0.00  0.00    +0.000 C 
ATOM      9  C   UNL     1     -70.225 -54.951 -29.172  0.00  0.00    +0.000 C 
ATOM     10  C   UNL     1     -71.091 -58.200 -30.715  0.00  0.00    +0.000 C 
ATOM     11  C   UNL     1     -70.704 -57.052 -32.958  0.00  0.00    +0.000 C 
ATOM     12  C   UNL     1     -74.930 -53.864 -29.441  0.00  0.00    +0.000 C 
ATOM     13  C   UNL     1     -70.692 -58.327 -32.063  0.00  0.00    +0.000 C 
ATOM     14  C   UNL     1     -72.085 -56.964 -33.671  0.00  0.00    +0.000 C 
ATOM     15  C   UNL     1     -69.580 -57.227 -34.022  0.00  0.00    +0.000 C 
ENDROOT
BRANCH   4  16
ATOM     16  O   UNL     1     -73.030 -52.735 -28.652  0.00  0.00    +0.000 OA
ATOM     17  H   UNL     1     -72.161 -53.049 -28.347  0.00  0.00    +0.000 HD
ENDBRANCH   4  16
BRANCH  13  18
ATOM     18  O   UNL     1     -70.293 -59.573 -32.534  0.00  0.00    +0.000 OA
ATOM     19  H   UNL     1     -70.844 -60.291 -32.157  0.00  0.00    +0.000 HD
ENDBRANCH  13  18
BRANCH   3  20
ATOM     20  C   UNL     1     -73.150 -55.710 -27.896  0.00  0.00    +0.000 C 
ATOM     21  C   UNL     1     -73.586 -56.379 -26.590  0.00  0.00    +0.000 C 
BRANCH  21  25
ATOM     22  C   UNL     1     -74.646 -55.577 -23.250  0.00  0.00    +0.000 C 
ATOM     23  C   UNL     1     -75.117 -56.413 -24.471  0.00  0.00    +0.000 C 
ATOM     24  C   UNL     1     -73.767 -56.081 -22.141  0.00  0.00    +0.000 C 
ATOM     25  C   UNL     1     -73.995 -56.999 -25.362  0.00  0.00    +0.000 C 
ATOM     26  C   UNL     1     -73.805 -55.193 -20.902  0.00  0.00    +0.000 C 
ATOM     27  C   UNL     1     -75.243 -54.380 -22.754  0.00  0.00    +0.000 C 
ATOM     28  C   UNL     1     -74.740 -54.168 -21.352  0.00  0.00    +0.000 C 
ATOM     29  C   UNL     1     -73.017 -57.243 -22.394  0.00  0.00    +0.000 C 
ATOM     30  C   UNL     1     -73.207 -58.132 -24.877  0.00  0.00    +0.000 C 
ATOM     31  C   UNL     1     -76.024 -55.485 -25.364  0.00  0.00    +0.000 C 
ATOM     32  C   UNL     1     -76.041 -57.565 -23.948  0.00  0.00    +0.000 C 
ATOM     33  C   UNL     1     -72.847 -58.081 -23.633  0.00  0.00    +0.000 C 
ATOM     34  C   UNL     1     -72.425 -54.690 -20.505  0.00  0.00    +0.000 C 
ATOM     35  C   UNL     1     -72.438 -59.065 -25.774  0.00  0.00    +0.000 C 
BRANCH  26  36
ATOM     36  O   UNL     1     -74.322 -55.905 -19.808  0.00  0.00    +0.000 OA
ATOM     37  H   UNL     1     -73.503 -56.239 -19.402  0.00  0.00    +0.000 HD
ENDBRANCH  26  36
ENDBRANCH  21  25
ENDBRANCH   3  20
TORSDOF 5
ENDMDL
MODEL 5
REMARK VINA RESULT:      -6.2     24.072     29.355
REMARK  Name = 342374_SipholenolA.pdbqt.pdb
REMARK  5 active torsions:
REMARK  status: ('A' for Active; 'I' for Inactive)
REMARK    1  A    between atoms: C_3  and  C_20
REMARK    2  A    between atoms: C_4  and  O_16
REMARK    3  A    between atoms: C_13  and  O_18
REMARK    4  A    between atoms: C_21  and  C_25
REMARK    5  A    between atoms: C_26  and  O_36
REMARK                            x       y       z     vdW  Elec       q    Type
REMARK                         _______ _______ _______ _____ _____    ______ ____
ROOT
ATOM      1  O   UNL     1     -69.749 -55.630 -40.369  0.00  0.00    +0.000 OA
ATOM      2  C   UNL     1     -70.205 -56.338 -37.897  0.00  0.00    +0.000 C 
ATOM      3  C   UNL     1     -69.535 -56.818 -36.606  0.00  0.00    +0.000 C 
ATOM      4  C   UNL     1     -68.443 -57.872 -36.669  0.00  0.00    +0.000 C 
ATOM      5  C   UNL     1     -69.293 -56.247 -39.199  0.00  0.00    +0.000 C 
ATOM      6  C   UNL     1     -70.645 -54.941 -37.754  0.00  0.00    +0.000 C 
ATOM      7  C   UNL     1     -67.904 -57.910 -38.014  0.00  0.00    +0.000 C 
ATOM      8  C   UNL     1     -68.232 -57.171 -39.268  0.00  0.00    +0.000 C 
ATOM      9  C   UNL     1     -71.412 -57.258 -38.227  0.00  0.00    +0.000 C 
ATOM     10  C   UNL     1     -70.698 -53.639 -38.514  0.00  0.00    +0.000 C 
ATOM     11  C   UNL     1     -69.394 -54.231 -40.623  0.00  0.00    +0.000 C 
ATOM     12  C   UNL     1     -67.345 -57.590 -35.632  0.00  0.00    +0.000 C 
ATOM     13  C   UNL     1     -70.256 -53.235 -39.792  0.00  0.00    +0.000 C 
ATOM     14  C   UNL     1     -67.892 -53.948 -40.326  0.00  0.00    +0.000 C 
ATOM     15  C   UNL     1     -69.688 -53.950 -42.126  0.00  0.00    +0.000 C 
ENDROOT
BRANCH   4  16
ATOM     16  O   UNL     1     -68.972 -59.129 -36.330  0.00  0.00    +0.000 OA
ATOM     17  H   UNL     1     -68.215 -59.539 -35.876  0.00  0.00    +0.000 HD
ENDBRANCH   4  16
BRANCH  13  18
ATOM     18  O   UNL     1     -70.616 -51.976 -40.263  0.00  0.00    +0.000 OA
ATOM     19  H   UNL     1     -70.295 -51.832 -41.178  0.00  0.00    +0.000 HD
ENDBRANCH  13  18
BRANCH   3  20
ATOM     20  C   UNL     1     -70.097 -56.450 -35.332  0.00  0.00    +0.000 C 
ATOM     21  C   UNL     1     -70.692 -56.076 -33.972  0.00  0.00    +0.000 C 
BRANCH  21  25
ATOM     22  C   UNL     1     -72.353 -53.389 -32.257  0.00  0.00    +0.000 C 
ATOM     23  C   UNL     1     -72.547 -54.901 -32.555  0.00  0.00    +0.000 C 
ATOM     24  C   UNL     1     -71.636 -52.825 -31.065  0.00  0.00    +0.000 C 
ATOM     25  C   UNL     1     -71.251 -55.733 -32.695  0.00  0.00    +0.000 C 
ATOM     26  C   UNL     1     -71.949 -51.353 -30.823  0.00  0.00    +0.000 C 
ATOM     27  C   UNL     1     -73.116 -52.308 -32.793  0.00  0.00    +0.000 C 
ATOM     28  C   UNL     1     -72.872 -51.105 -31.925  0.00  0.00    +0.000 C 
ATOM     29  C   UNL     1     -70.765 -53.686 -30.372  0.00  0.00    +0.000 C 
ATOM     30  C   UNL     1     -70.469 -56.058 -31.502  0.00  0.00    +0.000 C 
ATOM     31  C   UNL     1     -73.363 -55.022 -33.897  0.00  0.00    +0.000 C 
ATOM     32  C   UNL     1     -73.454 -55.508 -31.430  0.00  0.00    +0.000 C 
ATOM     33  C   UNL     1     -70.327 -55.101 -30.640  0.00  0.00    +0.000 C 
ATOM     34  C   UNL     1     -70.697 -50.486 -30.811  0.00  0.00    +0.000 C 
ATOM     35  C   UNL     1     -69.491 -57.200 -31.424  0.00  0.00    +0.000 C 
BRANCH  26  36
ATOM     36  O   UNL     1     -72.584 -51.186 -29.583  0.00  0.00    +0.000 OA
ATOM     37  H   UNL     1     -73.364 -51.757 -29.697  0.00  0.00    +0.000 HD
ENDBRANCH  26  36
ENDBRANCH  21  25
ENDBRANCH   3  20
TORSDOF 5
ENDMDL
MODEL 6
REMARK VINA RESULT:      -6.2     20.428     26.933
REMARK  Name = 342374_SipholenolA.pdbqt.pdb
REMARK  5 active torsions:
REMARK  status: ('A' for Active; 'I' for Inactive)
REMARK    1  A    between atoms: C_3  and  C_20
REMARK    2  A    between atoms: C_4  and  O_16
REMARK    3  A    between atoms: C_13  and  O_18
REMARK    4  A    between atoms: C_21  and  C_25
REMARK    5  A    between atoms: C_26  and  O_36
REMARK                            x       y       z     vdW  Elec       q    Type
REMARK                         _______ _______ _______ _____ _____    ______ ____
ROOT
ATOM      1  O   UNL     1     -69.381 -58.118 -32.642  0.00  0.00    +0.000 OA
ATOM      2  C   UNL     1     -68.426 -58.124 -35.073  0.00  0.00    +0.000 C 
ATOM      3  C   UNL     1     -68.432 -58.888 -36.400  0.00  0.00    +0.000 C 
ATOM      4  C   UNL     1     -68.341 -60.404 -36.399  0.00  0.00    +0.000 C 
ATOM      5  C   UNL     1     -69.150 -58.814 -33.834  0.00  0.00    +0.000 C 
ATOM      6  C   UNL     1     -69.196 -56.877 -35.199  0.00  0.00    +0.000 C 
ATOM      7  C   UNL     1     -68.727 -60.896 -35.091  0.00  0.00    +0.000 C 
ATOM      8  C   UNL     1     -69.138 -60.222 -33.826  0.00  0.00    +0.000 C 
ATOM      9  C   UNL     1     -66.961 -57.819 -34.657  0.00  0.00    +0.000 C 
ATOM     10  C   UNL     1     -70.189 -56.023 -34.449  0.00  0.00    +0.000 C 
ATOM     11  C   UNL     1     -70.687 -57.490 -32.424  0.00  0.00    +0.000 C 
ATOM     12  C   UNL     1     -69.216 -61.009 -37.507  0.00  0.00    +0.000 C 
ATOM     13  C   UNL     1     -70.845 -56.152 -33.206  0.00  0.00    +0.000 C 
ATOM     14  C   UNL     1     -71.860 -58.434 -32.821  0.00  0.00    +0.000 C 
ATOM     15  C   UNL     1     -70.784 -57.150 -30.908  0.00  0.00    +0.000 C 
ENDROOT
BRANCH   4  16
ATOM     16  O   UNL     1     -67.026 -60.804 -36.691  0.00  0.00    +0.000 OA
ATOM     17  H   UNL     1     -66.521 -60.022 -36.403  0.00  0.00    +0.000 HD
ENDBRANCH   4  16
BRANCH  13  18
ATOM     18  O   UNL     1     -71.592 -55.082 -32.723  0.00  0.00    +0.000 OA
ATOM     19  H   UNL     1     -71.726 -54.399 -33.414  0.00  0.00    +0.000 HD
ENDBRANCH  13  18
BRANCH   3  20
ATOM     20  C   UNL     1     -68.285 -58.167 -37.638  0.00  0.00    +0.000 C 
ATOM     21  C   UNL     1     -68.124 -57.414 -38.962  0.00  0.00    +0.000 C 
BRANCH  21  25
ATOM     22  C   UNL     1     -67.048 -57.916 -42.354  0.00  0.00    +0.000 C 
ATOM     23  C   UNL     1     -68.276 -57.378 -41.571  0.00  0.00    +0.000 C 
ATOM     24  C   UNL     1     -65.876 -57.092 -42.803  0.00  0.00    +0.000 C 
ATOM     25  C   UNL     1     -67.969 -56.717 -40.206  0.00  0.00    +0.000 C 
ATOM     26  C   UNL     1     -65.041 -57.780 -43.878  0.00  0.00    +0.000 C 
ATOM     27  C   UNL     1     -66.981 -59.123 -43.113  0.00  0.00    +0.000 C 
ATOM     28  C   UNL     1     -65.787 -59.025 -44.021  0.00  0.00    +0.000 C 
ATOM     29  C   UNL     1     -65.681 -55.853 -42.166  0.00  0.00    +0.000 C 
ATOM     30  C   UNL     1     -67.351 -55.390 -40.170  0.00  0.00    +0.000 C 
ATOM     31  C   UNL     1     -69.254 -58.588 -41.326  0.00  0.00    +0.000 C 
ATOM     32  C   UNL     1     -69.041 -56.370 -42.495  0.00  0.00    +0.000 C 
ATOM     33  C   UNL     1     -66.395 -55.187 -41.021  0.00  0.00    +0.000 C 
ATOM     34  C   UNL     1     -63.582 -57.934 -43.472  0.00  0.00    +0.000 C 
ATOM     35  C   UNL     1     -67.422 -54.464 -38.985  0.00  0.00    +0.000 C 
BRANCH  26  36
ATOM     36  O   UNL     1     -65.068 -57.034 -45.067  0.00  0.00    +0.000 OA
ATOM     37  H   UNL     1     -65.608 -56.272 -44.795  0.00  0.00    +0.000 HD
ENDBRANCH  26  36
ENDBRANCH  21  25
ENDBRANCH   3  20
TORSDOF 5
ENDMDL
MODEL 7
REMARK VINA RESULT:      -6.0      4.870      7.572
REMARK  Name = 342374_SipholenolA.pdbqt.pdb
REMARK  5 active torsions:
REMARK  status: ('A' for Active; 'I' for Inactive)
REMARK    1  A    between atoms: C_3  and  C_20
REMARK    2  A    between atoms: C_4  and  O_16
REMARK    3  A    between atoms: C_13  and  O_18
REMARK    4  A    between atoms: C_21  and  C_25
REMARK    5  A    between atoms: C_26  and  O_36
REMARK                            x       y       z     vdW  Elec       q    Type
REMARK                         _______ _______ _______ _____ _____    ______ ____
ROOT
ATOM      1  O   UNL     1     -59.046 -59.360 -60.145  0.00  0.00    +0.000 OA
ATOM      2  C   UNL     1     -59.131 -58.096 -57.861  0.00  0.00    +0.000 C 
ATOM      3  C   UNL     1     -59.984 -57.163 -56.997  0.00  0.00    +0.000 C 
ATOM      4  C   UNL     1     -60.695 -55.982 -57.636  0.00  0.00    +0.000 C 
ATOM      5  C   UNL     1     -59.632 -58.371 -59.347  0.00  0.00    +0.000 C 
ATOM      6  C   UNL     1     -59.134 -59.456 -57.300  0.00  0.00    +0.000 C 
ATOM      7  C   UNL     1     -60.806 -56.217 -59.062  0.00  0.00    +0.000 C 
ATOM      8  C   UNL     1     -60.347 -57.320 -59.955  0.00  0.00    +0.000 C 
ATOM      9  C   UNL     1     -57.681 -57.545 -57.943  0.00  0.00    +0.000 C 
ATOM     10  C   UNL     1     -59.216 -60.903 -57.717  0.00  0.00    +0.000 C 
ATOM     11  C   UNL     1     -59.672 -60.683 -60.215  0.00  0.00    +0.000 C 
ATOM     12  C   UNL     1     -62.073 -55.758 -56.995  0.00  0.00    +0.000 C 
ATOM     13  C   UNL     1     -59.372 -61.554 -58.959  0.00  0.00    +0.000 C 
ATOM     14  C   UNL     1     -61.217 -60.587 -60.391  0.00  0.00    +0.000 C 
ATOM     15  C   UNL     1     -59.054 -61.417 -61.442  0.00  0.00    +0.000 C 
ENDROOT
BRANCH   4  16
ATOM     16  O   UNL     1     -59.969 -54.802 -57.400  0.00  0.00    +0.000 OA
ATOM     17  H   UNL     1     -60.523 -54.368 -56.727  0.00  0.00    +0.000 HD
ENDBRANCH   4  16
BRANCH  13  18
ATOM     18  O   UNL     1     -59.241 -62.938 -59.017  0.00  0.00    +0.000 OA
ATOM     19  H   UNL     1     -58.758 -63.218 -59.823  0.00  0.00    +0.000 HD
ENDBRANCH  13  18
BRANCH   3  20
ATOM     20  C   UNL     1     -59.919 -57.263 -55.562  0.00  0.00    +0.000 C 
ATOM     21  C   UNL     1     -59.840 -57.383 -54.037  0.00  0.00    +0.000 C 
BRANCH  21  25
ATOM     22  C   UNL     1     -61.907 -57.385 -51.097  0.00  0.00    +0.000 C 
ATOM     23  C   UNL     1     -60.826 -58.264 -51.783  0.00  0.00    +0.000 C 
ATOM     24  C   UNL     1     -61.634 -56.297 -50.099  0.00  0.00    +0.000 C 
ATOM     25  C   UNL     1     -59.762 -57.504 -52.610  0.00  0.00    +0.000 C 
ATOM     26  C   UNL     1     -62.872 -55.893 -49.305  0.00  0.00    +0.000 C 
ATOM     27  C   UNL     1     -63.296 -57.685 -50.968  0.00  0.00    +0.000 C 
ATOM     28  C   UNL     1     -63.856 -56.795 -49.893  0.00  0.00    +0.000 C 
ATOM     29  C   UNL     1     -60.327 -55.779 -50.054  0.00  0.00    +0.000 C 
ATOM     30  C   UNL     1     -58.720 -56.744 -51.919  0.00  0.00    +0.000 C 
ATOM     31  C   UNL     1     -61.568 -59.273 -52.738  0.00  0.00    +0.000 C 
ATOM     32  C   UNL     1     -60.128 -59.131 -50.680  0.00  0.00    +0.000 C 
ATOM     33  C   UNL     1     -59.108 -56.052 -50.894  0.00  0.00    +0.000 C 
ATOM     34  C   UNL     1     -63.187 -54.409 -49.434  0.00  0.00    +0.000 C 
ATOM     35  C   UNL     1     -57.405 -56.361 -52.545  0.00  0.00    +0.000 C 
BRANCH  26  36
ATOM     36  O   UNL     1     -62.687 -56.165 -47.941  0.00  0.00    +0.000 OA
ATOM     37  H   UNL     1     -62.789 -57.133 -47.930  0.00  0.00    +0.000 HD
ENDBRANCH  26  36
ENDBRANCH  21  25
ENDBRANCH   3  20
TORSDOF 5
ENDMDL
MODEL 8
REMARK VINA RESULT:      -6.0     15.639     19.611
REMARK  Name = 342374_SipholenolA.pdbqt.pdb
REMARK  5 active torsions:
REMARK  status: ('A' for Active; 'I' for Inactive)
REMARK    1  A    between atoms: C_3  and  C_20
REMARK    2  A    between atoms: C_4  and  O_16
REMARK    3  A    between atoms: C_13  and  O_18
REMARK    4  A    between atoms: C_21  and  C_25
REMARK    5  A    between atoms: C_26  and  O_36
REMARK                            x       y       z     vdW  Elec       q    Type
REMARK                         _______ _______ _______ _____ _____    ______ ____
ROOT
ATOM      1  O   UNL     1     -61.238 -49.130 -78.902  0.00  0.00    +0.000 OA
ATOM      2  C   UNL     1     -58.844 -49.805 -78.105  0.00  0.00    +0.000 C 
ATOM      3  C   UNL     1     -57.529 -50.448 -78.553  0.00  0.00    +0.000 C 
ATOM      4  C   UNL     1     -57.554 -51.698 -79.417  0.00  0.00    +0.000 C 
ATOM      5  C   UNL     1     -60.065 -49.861 -79.126  0.00  0.00    +0.000 C 
ATOM      6  C   UNL     1     -58.672 -48.353 -77.939  0.00  0.00    +0.000 C 
ATOM      7  C   UNL     1     -58.854 -51.803 -80.051  0.00  0.00    +0.000 C 
ATOM      8  C   UNL     1     -60.093 -50.976 -79.984  0.00  0.00    +0.000 C 
ATOM      9  C   UNL     1     -59.310 -50.453 -76.772  0.00  0.00    +0.000 C 
ATOM     10  C   UNL     1     -59.373 -47.044 -78.210  0.00  0.00    +0.000 C 
ATOM     11  C   UNL     1     -61.398 -47.824 -79.548  0.00  0.00    +0.000 C 
ATOM     12  C   UNL     1     -56.423 -51.673 -80.455  0.00  0.00    +0.000 C 
ATOM     13  C   UNL     1     -60.592 -46.700 -78.831  0.00  0.00    +0.000 C 
ATOM     14  C   UNL     1     -60.972 -47.858 -81.045  0.00  0.00    +0.000 C 
ATOM     15  C   UNL     1     -62.905 -47.445 -79.446  0.00  0.00    +0.000 C 
ENDROOT
BRANCH   4  16
ATOM     16  O   UNL     1     -57.317 -52.832 -78.621  0.00  0.00    +0.000 OA
ATOM     17  H   UNL     1     -58.156 -53.316 -78.724  0.00  0.00    +0.000 HD
ENDBRANCH   4  16
BRANCH  13  18
ATOM     18  O   UNL     1     -61.031 -45.381 -78.770  0.00  0.00    +0.000 OA
ATOM     19  H   UNL     1     -61.261 -45.124 -77.852  0.00  0.00    +0.000 HD
ENDBRANCH  13  18
BRANCH   3  20
ATOM     20  C   UNL     1     -56.287 -50.013 -77.968  0.00  0.00    +0.000 C 
ATOM     21  C   UNL     1     -54.970 -49.534 -77.350  0.00  0.00    +0.000 C 
BRANCH  21  25
ATOM     22  C   UNL     1     -51.773 -50.736 -76.230  0.00  0.00    +0.000 C 
ATOM     23  C   UNL     1     -52.365 -49.664 -77.185  0.00  0.00    +0.000 C 
ATOM     24  C   UNL     1     -51.462 -50.525 -74.776  0.00  0.00    +0.000 C 
ATOM     25  C   UNL     1     -53.737 -49.078 -76.775  0.00  0.00    +0.000 C 
ATOM     26  C   UNL     1     -50.533 -51.591 -74.206  0.00  0.00    +0.000 C 
ATOM     27  C   UNL     1     -51.069 -51.919 -76.606  0.00  0.00    +0.000 C 
ATOM     28  C   UNL     1     -50.329 -52.413 -75.393  0.00  0.00    +0.000 C 
ATOM     29  C   UNL     1     -52.080 -49.434 -74.139  0.00  0.00    +0.000 C 
ATOM     30  C   UNL     1     -53.815 -48.139 -75.656  0.00  0.00    +0.000 C 
ATOM     31  C   UNL     1     -52.512 -50.322 -78.609  0.00  0.00    +0.000 C 
ATOM     32  C   UNL     1     -51.314 -48.511 -77.337  0.00  0.00    +0.000 C 
ATOM     33  C   UNL     1     -53.096 -48.432 -74.619  0.00  0.00    +0.000 C 
ATOM     34  C   UNL     1     -51.138 -52.311 -73.009  0.00  0.00    +0.000 C 
ATOM     35  C   UNL     1     -54.949 -47.170 -75.451  0.00  0.00    +0.000 C 
BRANCH  26  36
ATOM     36  O   UNL     1     -49.328 -51.010 -73.779  0.00  0.00    +0.000 OA
ATOM     37  H   UNL     1     -49.523 -50.853 -72.839  0.00  0.00    +0.000 HD
ENDBRANCH  26  36
ENDBRANCH  21  25
ENDBRANCH   3  20
TORSDOF 5
ENDMDL
MODEL 9
REMARK VINA RESULT:      -6.0     31.163     36.619
REMARK  Name = 342374_SipholenolA.pdbqt.pdb
REMARK  5 active torsions:
REMARK  status: ('A' for Active; 'I' for Inactive)
REMARK    1  A    between atoms: C_3  and  C_20
REMARK    2  A    between atoms: C_4  and  O_16
REMARK    3  A    between atoms: C_13  and  O_18
REMARK    4  A    between atoms: C_21  and  C_25
REMARK    5  A    between atoms: C_26  and  O_36
REMARK                            x       y       z     vdW  Elec       q    Type
REMARK                         _______ _______ _______ _____ _____    ______ ____
ROOT
ATOM      1  O   UNL     1     -70.580 -55.780 -32.286  0.00  0.00    +0.000 OA
ATOM      2  C   UNL     1     -71.482 -55.686 -29.836  0.00  0.00    +0.000 C 
ATOM      3  C   UNL     1     -72.714 -55.366 -28.986  0.00  0.00    +0.000 C 
ATOM      4  C   UNL     1     -73.555 -54.142 -29.304  0.00  0.00    +0.000 C 
ATOM      5  C   UNL     1     -71.562 -55.343 -31.389  0.00  0.00    +0.000 C 
ATOM      6  C   UNL     1     -71.250 -57.138 -29.873  0.00  0.00    +0.000 C 
ATOM      7  C   UNL     1     -73.291 -53.733 -30.669  0.00  0.00    +0.000 C 
ATOM      8  C   UNL     1     -72.379 -54.248 -31.732  0.00  0.00    +0.000 C 
ATOM      9  C   UNL     1     -70.244 -54.952 -29.251  0.00  0.00    +0.000 C 
ATOM     10  C   UNL     1     -70.859 -58.246 -30.820  0.00  0.00    +0.000 C 
ATOM     11  C   UNL     1     -70.809 -57.010 -33.049  0.00  0.00    +0.000 C 
ATOM     12  C   UNL     1     -75.048 -54.426 -29.082  0.00  0.00    +0.000 C 
ATOM     13  C   UNL     1     -70.569 -58.294 -32.200  0.00  0.00    +0.000 C 
ATOM     14  C   UNL     1     -72.249 -57.071 -33.638  0.00  0.00    +0.000 C 
ATOM     15  C   UNL     1     -69.771 -57.027 -34.210  0.00  0.00    +0.000 C 
ENDROOT
BRANCH   4  16
ATOM     16  O   UNL     1     -73.231 -53.097 -28.421  0.00  0.00    +0.000 OA
ATOM     17  H   UNL     1     -72.267 -53.212 -28.336  0.00  0.00    +0.000 HD
ENDBRANCH   4  16
BRANCH  13  18
ATOM     18  O   UNL     1     -70.071 -59.474 -32.744  0.00  0.00    +0.000 OA
ATOM     19  H   UNL     1     -70.084 -59.449 -33.724  0.00  0.00    +0.000 HD
ENDBRANCH  13  18
BRANCH   3  20
ATOM     20  C   UNL     1     -72.936 -56.081 -27.755  0.00  0.00    +0.000 C 
ATOM     21  C   UNL     1     -73.173 -56.856 -26.456  0.00  0.00    +0.000 C 
BRANCH  21  25
ATOM     22  C   UNL     1     -73.030 -60.189 -25.116  0.00  0.00    +0.000 C 
ATOM     23  C   UNL     1     -72.490 -58.766 -24.807  0.00  0.00    +0.000 C 
ATOM     24  C   UNL     1     -74.327 -60.753 -24.613  0.00  0.00    +0.000 C 
ATOM     25  C   UNL     1     -73.396 -57.590 -25.243  0.00  0.00    +0.000 C 
ATOM     26  C   UNL     1     -74.402 -62.271 -24.730  0.00  0.00    +0.000 C 
ATOM     27  C   UNL     1     -72.271 -61.311 -25.563  0.00  0.00    +0.000 C 
ATOM     28  C   UNL     1     -73.097 -62.545 -25.321  0.00  0.00    +0.000 C 
ATOM     29  C   UNL     1     -75.290 -59.836 -24.151  0.00  0.00    +0.000 C 
ATOM     30  C   UNL     1     -74.617 -57.302 -24.489  0.00  0.00    +0.000 C 
ATOM     31  C   UNL     1     -71.100 -58.615 -25.532  0.00  0.00    +0.000 C 
ATOM     32  C   UNL     1     -72.200 -58.677 -23.270  0.00  0.00    +0.000 C 
ATOM     33  C   UNL     1     -75.316 -58.332 -24.129  0.00  0.00    +0.000 C 
ATOM     34  C   UNL     1     -75.599 -62.732 -25.550  0.00  0.00    +0.000 C 
ATOM     35  C   UNL     1     -75.317 -55.969 -24.503  0.00  0.00    +0.000 C 
BRANCH  26  36
ATOM     36  O   UNL     1     -74.516 -62.854 -23.459  0.00  0.00    +0.000 OA
ATOM     37  H   UNL     1     -74.579 -62.061 -22.897  0.00  0.00    +0.000 HD
ENDBRANCH  26  36
ENDBRANCH  21  25
ENDBRANCH   3  20
TORSDOF 5
ENDMDL
