MODEL 1
REMARK VINA RESULT:      -3.8      0.000      0.000
REMARK  Name = 43806_Diaminocyclohexane.pdbqt.pdb
REMARK  2 active torsions:
REMARK  status: ('A' for Active; 'I' for Inactive)
REMARK    1  A    between atoms: C_1  and  N_7
REMARK    2  A    between atoms: C_2  and  N_10
REMARK                            x       y       z     vdW  Elec       q    Type
REMARK                         _______ _______ _______ _____ _____    ______ ____
ROOT
ATOM      1  C   UNL     1     -62.002 -46.776 -60.016  0.00  0.00    +0.000 A 
ATOM      2  C   UNL     1     -62.021 -46.349 -58.600  0.00  0.00    +0.000 A 
ATOM      3  C   UNL     1     -63.274 -47.147 -60.559  0.00  0.00    +0.000 A 
ATOM      4  C   UNL     1     -63.316 -46.335 -57.985  0.00  0.00    +0.000 A 
ATOM      5  C   UNL     1     -64.691 -47.168 -59.962  0.00  0.00    +0.000 A 
ATOM      6  C   UNL     1     -64.715 -46.706 -58.504  0.00  0.00    +0.000 A 
ENDROOT
BRANCH   1   7
ATOM      7  N   UNL     1     -60.828 -46.749 -60.806  0.00  0.00    +0.000 N 
ATOM      8  H   UNL     1     -60.886 -47.329 -61.637  0.00  0.00    +0.000 HD
ATOM      9  H   UNL     1     -59.968 -46.899 -60.288  0.00  0.00    +0.000 HD
ENDBRANCH   1   7
BRANCH   2  10
ATOM     10  N   UNL     1     -60.844 -46.050 -57.874  0.00  0.00    +0.000 N 
ATOM     11  H   UNL     1     -60.432 -46.858 -57.419  0.00  0.00    +0.000 HD
ATOM     12  H   UNL     1     -60.924 -45.255 -57.250  0.00  0.00    +0.000 HD
ENDBRANCH   2  10
TORSDOF 2
ENDMDL
MODEL 2
REMARK VINA RESULT:      -3.8      0.011      2.286
REMARK  Name = 43806_Diaminocyclohexane.pdbqt.pdb
REMARK  2 active torsions:
REMARK  status: ('A' for Active; 'I' for Inactive)
REMARK    1  A    between atoms: C_1  and  N_7
REMARK    2  A    between atoms: C_2  and  N_10
REMARK                            x       y       z     vdW  Elec       q    Type
REMARK                         _______ _______ _______ _____ _____    ______ ____
ROOT
ATOM      1  C   UNL     1     -62.015 -46.344 -58.594  0.00  0.00    +0.000 A 
ATOM      2  C   UNL     1     -61.997 -46.775 -60.009  0.00  0.00    +0.000 A 
ATOM      3  C   UNL     1     -63.308 -46.329 -57.977  0.00  0.00    +0.000 A 
ATOM      4  C   UNL     1     -63.272 -47.146 -60.549  0.00  0.00    +0.000 A 
ATOM      5  C   UNL     1     -64.708 -46.700 -58.492  0.00  0.00    +0.000 A 
ATOM      6  C   UNL     1     -64.687 -47.166 -59.949  0.00  0.00    +0.000 A 
ENDROOT
BRANCH   1   7
ATOM      7  N   UNL     1     -60.836 -46.043 -57.872  0.00  0.00    +0.000 N 
ATOM      8  H   UNL     1     -59.989 -46.375 -58.323  0.00  0.00    +0.000 HD
ATOM      9  H   UNL     1     -60.871 -46.287 -56.887  0.00  0.00    +0.000 HD
ENDBRANCH   1   7
BRANCH   2  10
ATOM     10  N   UNL     1     -60.826 -46.748 -60.802  0.00  0.00    +0.000 N 
ATOM     11  H   UNL     1     -60.866 -46.078 -61.564  0.00  0.00    +0.000 HD
ATOM     12  H   UNL     1     -60.503 -47.660 -61.108  0.00  0.00    +0.000 HD
ENDBRANCH   2  10
TORSDOF 2
ENDMDL
MODEL 3
REMARK VINA RESULT:      -3.8      1.411      2.270
REMARK  Name = 43806_Diaminocyclohexane.pdbqt.pdb
REMARK  2 active torsions:
REMARK  status: ('A' for Active; 'I' for Inactive)
REMARK    1  A    between atoms: C_1  and  N_7
REMARK    2  A    between atoms: C_2  and  N_10
REMARK                            x       y       z     vdW  Elec       q    Type
REMARK                         _______ _______ _______ _____ _____    ______ ____
ROOT
ATOM      1  C   UNL     1     -61.405 -46.088 -58.507  0.00  0.00    +0.000 A 
ATOM      2  C   UNL     1     -62.801 -46.187 -58.025  0.00  0.00    +0.000 A 
ATOM      3  C   UNL     1     -61.193 -46.524 -59.855  0.00  0.00    +0.000 A 
ATOM      4  C   UNL     1     -63.745 -46.673 -58.987  0.00  0.00    +0.000 A 
ATOM      5  C   UNL     1     -62.147 -47.063 -60.934  0.00  0.00    +0.000 A 
ATOM      6  C   UNL     1     -63.594 -47.145 -60.442  0.00  0.00    +0.000 A 
ENDROOT
BRANCH   1   7
ATOM      7  N   UNL     1     -60.365 -45.531 -57.726  0.00  0.00    +0.000 N 
ATOM      8  H   UNL     1     -60.505 -45.641 -56.727  0.00  0.00    +0.000 HD
ATOM      9  H   UNL     1     -60.111 -44.581 -57.979  0.00  0.00    +0.000 HD
ENDBRANCH   1   7
BRANCH   2  10
ATOM     10  N   UNL     1     -63.170 -45.900 -56.689  0.00  0.00    +0.000 N 
ATOM     11  H   UNL     1     -63.716 -45.049 -56.594  0.00  0.00    +0.000 HD
ATOM     12  H   UNL     1     -62.408 -45.946 -56.022  0.00  0.00    +0.000 HD
ENDBRANCH   2  10
TORSDOF 2
ENDMDL
MODEL 4
REMARK VINA RESULT:      -3.5      1.999      2.836
REMARK  Name = 43806_Diaminocyclohexane.pdbqt.pdb
REMARK  2 active torsions:
REMARK  status: ('A' for Active; 'I' for Inactive)
REMARK    1  A    between atoms: C_1  and  N_7
REMARK    2  A    between atoms: C_2  and  N_10
REMARK                            x       y       z     vdW  Elec       q    Type
REMARK                         _______ _______ _______ _____ _____    ______ ____
ROOT
ATOM      1  C   UNL     1     -64.005 -46.573 -58.806  0.00  0.00    +0.000 A 
ATOM      2  C   UNL     1     -62.832 -46.205 -57.984  0.00  0.00    +0.000 A 
ATOM      3  C   UNL     1     -63.713 -46.929 -60.162  0.00  0.00    +0.000 A 
ATOM      4  C   UNL     1     -61.568 -46.291 -58.654  0.00  0.00    +0.000 A 
ATOM      5  C   UNL     1     -62.394 -47.032 -60.947  0.00  0.00    +0.000 A 
ATOM      6  C   UNL     1     -61.179 -46.672 -60.090  0.00  0.00    +0.000 A 
ENDROOT
BRANCH   1   7
ATOM      7  N   UNL     1     -65.316 -46.646 -58.278  0.00  0.00    +0.000 N 
ATOM      8  H   UNL     1     -66.015 -46.203 -58.865  0.00  0.00    +0.000 HD
ATOM      9  H   UNL     1     -65.394 -46.366 -57.305  0.00  0.00    +0.000 HD
ENDBRANCH   1   7
BRANCH   2  10
ATOM     10  N   UNL     1     -62.947 -45.727 -56.657  0.00  0.00    +0.000 N 
ATOM     11  H   UNL     1     -63.127 -46.459 -55.977  0.00  0.00    +0.000 HD
ATOM     12  H   UNL     1     -63.573 -44.936 -56.547  0.00  0.00    +0.000 HD
ENDBRANCH   2  10
TORSDOF 2
ENDMDL
MODEL 5
REMARK VINA RESULT:      -3.4     18.091     19.117
REMARK  Name = 43806_Diaminocyclohexane.pdbqt.pdb
REMARK  2 active torsions:
REMARK  status: ('A' for Active; 'I' for Inactive)
REMARK    1  A    between atoms: C_1  and  N_7
REMARK    2  A    between atoms: C_2  and  N_10
REMARK                            x       y       z     vdW  Elec       q    Type
REMARK                         _______ _______ _______ _____ _____    ______ ____
ROOT
ATOM      1  C   UNL     1     -66.784 -59.897 -71.812  0.00  0.00    +0.000 A 
ATOM      2  C   UNL     1     -65.905 -60.471 -70.770  0.00  0.00    +0.000 A 
ATOM      3  C   UNL     1     -66.405 -60.194 -73.162  0.00  0.00    +0.000 A 
ATOM      4  C   UNL     1     -64.819 -61.267 -71.261  0.00  0.00    +0.000 A 
ATOM      5  C   UNL     1     -65.258 -61.025 -73.759  0.00  0.00    +0.000 A 
ATOM      6  C   UNL     1     -64.360 -61.635 -72.680  0.00  0.00    +0.000 A 
ENDROOT
BRANCH   1   7
ATOM      7  N   UNL     1     -67.962 -59.174 -71.506  0.00  0.00    +0.000 N 
ATOM      8  H   UNL     1     -67.829 -58.168 -71.504  0.00  0.00    +0.000 HD
ATOM      9  H   UNL     1     -68.454 -59.501 -70.680  0.00  0.00    +0.000 HD
ENDBRANCH   1   7
BRANCH   2  10
ATOM     10  N   UNL     1     -66.069 -60.192 -69.393  0.00  0.00    +0.000 N 
ATOM     11  H   UNL     1     -65.204 -60.240 -68.864  0.00  0.00    +0.000 HD
ATOM     12  H   UNL     1     -66.822 -60.704 -68.947  0.00  0.00    +0.000 HD
ENDBRANCH   2  10
TORSDOF 2
ENDMDL
MODEL 6
REMARK VINA RESULT:      -3.4     18.093     19.199
REMARK  Name = 43806_Diaminocyclohexane.pdbqt.pdb
REMARK  2 active torsions:
REMARK  status: ('A' for Active; 'I' for Inactive)
REMARK    1  A    between atoms: C_1  and  N_7
REMARK    2  A    between atoms: C_2  and  N_10
REMARK                            x       y       z     vdW  Elec       q    Type
REMARK                         _______ _______ _______ _____ _____    ______ ____
ROOT
ATOM      1  C   UNL     1     -65.893 -60.495 -70.747  0.00  0.00    +0.000 A 
ATOM      2  C   UNL     1     -66.738 -59.915 -71.814  0.00  0.00    +0.000 A 
ATOM      3  C   UNL     1     -64.811 -61.316 -71.204  0.00  0.00    +0.000 A 
ATOM      4  C   UNL     1     -66.332 -60.230 -73.152  0.00  0.00    +0.000 A 
ATOM      5  C   UNL     1     -64.326 -61.705 -72.611  0.00  0.00    +0.000 A 
ATOM      6  C   UNL     1     -65.187 -61.087 -73.714  0.00  0.00    +0.000 A 
ENDROOT
BRANCH   1   7
ATOM      7  N   UNL     1     -66.084 -60.202 -69.376  0.00  0.00    +0.000 N 
ATOM      8  H   UNL     1     -66.442 -60.987 -68.840  0.00  0.00    +0.000 HD
ATOM      9  H   UNL     1     -66.597 -59.345 -69.196  0.00  0.00    +0.000 HD
ENDBRANCH   1   7
BRANCH   2  10
ATOM     10  N   UNL     1     -67.908 -59.168 -71.541  0.00  0.00    +0.000 N 
ATOM     11  H   UNL     1     -68.406 -58.875 -72.375  0.00  0.00    +0.000 HD
ATOM     12  H   UNL     1     -67.778 -58.407 -70.882  0.00  0.00    +0.000 HD
ENDBRANCH   2  10
TORSDOF 2
ENDMDL
MODEL 7
REMARK VINA RESULT:      -3.4     18.253     19.290
REMARK  Name = 43806_Diaminocyclohexane.pdbqt.pdb
REMARK  2 active torsions:
REMARK  status: ('A' for Active; 'I' for Inactive)
REMARK    1  A    between atoms: C_1  and  N_7
REMARK    2  A    between atoms: C_2  and  N_10
REMARK                            x       y       z     vdW  Elec       q    Type
REMARK                         _______ _______ _______ _____ _____    ______ ____
ROOT
ATOM      1  C   UNL     1     -64.783 -61.328 -71.686  0.00  0.00    +0.000 A 
ATOM      2  C   UNL     1     -65.792 -60.445 -71.060  0.00  0.00    +0.000 A 
ATOM      3  C   UNL     1     -64.864 -61.431 -73.112  0.00  0.00    +0.000 A 
ATOM      4  C   UNL     1     -66.683 -59.794 -71.975  0.00  0.00    +0.000 A 
ATOM      5  C   UNL     1     -65.791 -60.778 -74.150  0.00  0.00    +0.000 A 
ATOM      6  C   UNL     1     -66.821 -59.848 -73.505  0.00  0.00    +0.000 A 
ENDROOT
BRANCH   1   7
ATOM      7  N   UNL     1     -63.760 -61.965 -70.944  0.00  0.00    +0.000 N 
ATOM      8  H   UNL     1     -63.919 -61.951 -69.942  0.00  0.00    +0.000 HD
ATOM      9  H   UNL     1     -62.819 -61.676 -71.191  0.00  0.00    +0.000 HD
ENDBRANCH   1   7
BRANCH   2  10
ATOM     10  N   UNL     1     -65.925 -60.309 -69.658  0.00  0.00    +0.000 N 
ATOM     11  H   UNL     1     -65.045 -60.137 -69.182  0.00  0.00    +0.000 HD
ATOM     12  H   UNL     1     -66.468 -61.042 -69.214  0.00  0.00    +0.000 HD
ENDBRANCH   2  10
TORSDOF 2
ENDMDL
MODEL 8
REMARK VINA RESULT:      -3.4     18.265     19.379
REMARK  Name = 43806_Diaminocyclohexane.pdbqt.pdb
REMARK  2 active torsions:
REMARK  status: ('A' for Active; 'I' for Inactive)
REMARK    1  A    between atoms: C_1  and  N_7
REMARK    2  A    between atoms: C_2  and  N_10
REMARK                            x       y       z     vdW  Elec       q    Type
REMARK                         _______ _______ _______ _____ _____    ______ ____
ROOT
ATOM      1  C   UNL     1     -65.784 -60.456 -71.067  0.00  0.00    +0.000 A 
ATOM      2  C   UNL     1     -64.773 -61.343 -71.684  0.00  0.00    +0.000 A 
ATOM      3  C   UNL     1     -66.668 -59.806 -71.988  0.00  0.00    +0.000 A 
ATOM      4  C   UNL     1     -64.845 -61.448 -73.111  0.00  0.00    +0.000 A 
ATOM      5  C   UNL     1     -66.796 -59.862 -73.519  0.00  0.00    +0.000 A 
ATOM      6  C   UNL     1     -65.764 -60.795 -74.155  0.00  0.00    +0.000 A 
ENDROOT
BRANCH   1   7
ATOM      7  N   UNL     1     -65.926 -60.317 -69.666  0.00  0.00    +0.000 N 
ATOM      8  H   UNL     1     -66.888 -60.189 -69.367  0.00  0.00    +0.000 HD
ATOM      9  H   UNL     1     -65.297 -59.642 -69.244  0.00  0.00    +0.000 HD
ENDBRANCH   1   7
BRANCH   2  10
ATOM     10  N   UNL     1     -63.756 -61.980 -70.935  0.00  0.00    +0.000 N 
ATOM     11  H   UNL     1     -63.810 -61.795 -69.938  0.00  0.00    +0.000 HD
ATOM     12  H   UNL     1     -62.819 -61.851 -71.301  0.00  0.00    +0.000 HD
ENDBRANCH   2  10
TORSDOF 2
ENDMDL
MODEL 9
REMARK VINA RESULT:      -3.2      2.440      3.004
REMARK  Name = 43806_Diaminocyclohexane.pdbqt.pdb
REMARK  2 active torsions:
REMARK  status: ('A' for Active; 'I' for Inactive)
REMARK    1  A    between atoms: C_1  and  N_7
REMARK    2  A    between atoms: C_2  and  N_10
REMARK                            x       y       z     vdW  Elec       q    Type
REMARK                         _______ _______ _______ _____ _____    ______ ____
ROOT
ATOM      1  C   UNL     1     -60.649 -44.157 -59.667  0.00  0.00    +0.000 A 
ATOM      2  C   UNL     1     -60.878 -45.013 -58.483  0.00  0.00    +0.000 A 
ATOM      3  C   UNL     1     -60.941 -44.770 -60.929  0.00  0.00    +0.000 A 
ATOM      4  C   UNL     1     -61.390 -46.321 -58.766  0.00  0.00    +0.000 A 
ATOM      5  C   UNL     1     -61.479 -46.160 -61.307  0.00  0.00    +0.000 A 
ATOM      6  C   UNL     1     -61.736 -47.038 -60.081  0.00  0.00    +0.000 A 
ENDROOT
BRANCH   1   7
ATOM      7  N   UNL     1     -60.247 -42.804 -59.566  0.00  0.00    +0.000 N 
ATOM      8  H   UNL     1     -60.329 -42.426 -58.628  0.00  0.00    +0.000 HD
ATOM      9  H   UNL     1     -60.651 -42.191 -60.267  0.00  0.00    +0.000 HD
ENDBRANCH   1   7
BRANCH   2  10
ATOM     10  N   UNL     1     -60.543 -44.607 -57.169  0.00  0.00    +0.000 N 
ATOM     11  H   UNL     1     -59.643 -44.141 -57.106  0.00  0.00    +0.000 HD
ATOM     12  H   UNL     1     -60.654 -45.328 -56.464  0.00  0.00    +0.000 HD
ENDBRANCH   2  10
TORSDOF 2
ENDMDL
