MODEL 1
REMARK VINA RESULT:      -6.7      0.000      0.000
REMARK  Name = 44234954_SipholenolL.pdbqt.pdb
REMARK  5 active torsions:
REMARK  status: ('A' for Active; 'I' for Inactive)
REMARK    1  A    between atoms: C_3  and  C_20
REMARK    2  A    between atoms: C_4  and  O_16
REMARK    3  A    between atoms: C_13  and  O_18
REMARK    4  A    between atoms: C_21  and  C_25
REMARK    5  A    between atoms: C_26  and  O_36
REMARK                            x       y       z     vdW  Elec       q    Type
REMARK                         _______ _______ _______ _____ _____    ______ ____
ROOT
ATOM      1  O   UNL     1     -66.812 -61.871 -71.050  0.00  0.00    +0.000 OA
ATOM      2  C   UNL     1     -67.166 -60.430 -73.193  0.00  0.00    +0.000 C 
ATOM      3  C   UNL     1     -67.849 -60.421 -74.562  0.00  0.00    +0.000 C 
ATOM      4  C   UNL     1     -69.301 -60.850 -74.677  0.00  0.00    +0.000 C 
ATOM      5  C   UNL     1     -67.525 -61.647 -72.232  0.00  0.00    +0.000 C 
ATOM      6  C   UNL     1     -65.711 -60.601 -73.329  0.00  0.00    +0.000 C 
ATOM      7  C   UNL     1     -69.609 -61.735 -73.569  0.00  0.00    +0.000 C 
ATOM      8  C   UNL     1     -68.824 -62.175 -72.378  0.00  0.00    +0.000 C 
ATOM      9  C   UNL     1     -67.476 -59.108 -72.443  0.00  0.00    +0.000 C 
ATOM     10  C   UNL     1     -64.558 -61.358 -72.720  0.00  0.00    +0.000 C 
ATOM     11  C   UNL     1     -65.733 -62.873 -71.029  0.00  0.00    +0.000 C 
ATOM     12  C   UNL     1     -70.242 -59.656 -74.805  0.00  0.00    +0.000 C 
ATOM     13  C   UNL     1     -64.428 -62.341 -71.712  0.00  0.00    +0.000 C 
ATOM     14  C   UNL     1     -65.441 -63.140 -69.527  0.00  0.00    +0.000 C 
ATOM     15  C   UNL     1     -66.173 -64.187 -71.746  0.00  0.00    +0.000 C 
ENDROOT
BRANCH   4  16
ATOM     16  O   UNL     1     -69.467 -61.575 -75.878  0.00  0.00    +0.000 OA
ATOM     17  H   UNL     1     -68.607 -62.032 -75.934  0.00  0.00    +0.000 HD
ENDBRANCH   4  16
BRANCH  13  18
ATOM     18  O   UNL     1     -63.196 -62.954 -71.522  0.00  0.00    +0.000 OA
ATOM     19  H   UNL     1     -63.280 -63.850 -71.149  0.00  0.00    +0.000 HD
ENDBRANCH  13  18
BRANCH   3  20
ATOM     20  C   UNL     1     -67.153 -59.953 -75.730  0.00  0.00    +0.000 C 
ATOM     21  C   UNL     1     -66.419 -59.421 -76.964  0.00  0.00    +0.000 C 
BRANCH  21  25
ATOM     22  C   UNL     1     -64.410 -59.517 -78.583  0.00  0.00    +0.000 A 
ATOM     23  C   UNL     1     -63.684 -58.917 -79.849  0.00  0.00    +0.000 A 
ATOM     24  C   UNL     1     -63.810 -60.747 -77.783  0.00  0.00    +0.000 C 
ATOM     25  C   UNL     1     -65.728 -58.880 -78.093  0.00  0.00    +0.000 A 
ATOM     26  C   UNL     1     -62.382 -59.406 -80.523  0.00  0.00    +0.000 C 
ATOM     27  C   UNL     1     -62.563 -61.079 -78.480  0.00  0.00    +0.000 C 
ATOM     28  C   UNL     1     -61.899 -60.497 -79.699  0.00  0.00    +0.000 C 
ATOM     29  C   UNL     1     -64.380 -57.767 -80.326  0.00  0.00    +0.000 A 
ATOM     30  C   UNL     1     -66.337 -57.684 -78.738  0.00  0.00    +0.000 A 
ATOM     31  C   UNL     1     -64.781 -61.949 -77.870  0.00  0.00    +0.000 C 
ATOM     32  C   UNL     1     -63.483 -60.325 -76.334  0.00  0.00    +0.000 C 
ATOM     33  C   UNL     1     -65.655 -57.234 -79.743  0.00  0.00    +0.000 A 
ATOM     34  C   UNL     1     -62.623 -59.803 -81.973  0.00  0.00    +0.000 C 
ATOM     35  C   UNL     1     -67.675 -57.086 -78.414  0.00  0.00    +0.000 C 
BRANCH  26  36
ATOM     36  O   UNL     1     -61.437 -58.367 -80.531  0.00  0.00    +0.000 OA
ATOM     37  H   UNL     1     -61.149 -58.385 -81.462  0.00  0.00    +0.000 HD
ENDBRANCH  26  36
ENDBRANCH  21  25
ENDBRANCH   3  20
TORSDOF 5
ENDMDL
MODEL 2
REMARK VINA RESULT:      -6.5     17.920     22.724
REMARK  Name = 44234954_SipholenolL.pdbqt.pdb
REMARK  5 active torsions:
REMARK  status: ('A' for Active; 'I' for Inactive)
REMARK    1  A    between atoms: C_3  and  C_20
REMARK    2  A    between atoms: C_4  and  O_16
REMARK    3  A    between atoms: C_13  and  O_18
REMARK    4  A    between atoms: C_21  and  C_25
REMARK    5  A    between atoms: C_26  and  O_36
REMARK                            x       y       z     vdW  Elec       q    Type
REMARK                         _______ _______ _______ _____ _____    ______ ____
ROOT
ATOM      1  O   UNL     1     -63.340 -57.364 -49.311  0.00  0.00    +0.000 OA
ATOM      2  C   UNL     1     -62.011 -57.838 -51.501  0.00  0.00    +0.000 C 
ATOM      3  C   UNL     1     -60.731 -57.476 -52.258  0.00  0.00    +0.000 C 
ATOM      4  C   UNL     1     -59.405 -57.461 -51.521  0.00  0.00    +0.000 C 
ATOM      5  C   UNL     1     -62.138 -57.273 -50.019  0.00  0.00    +0.000 C 
ATOM      6  C   UNL     1     -63.191 -57.228 -52.134  0.00  0.00    +0.000 C 
ATOM      7  C   UNL     1     -59.662 -57.231 -50.112  0.00  0.00    +0.000 C 
ATOM      8  C   UNL     1     -60.923 -57.117 -49.320  0.00  0.00    +0.000 C 
ATOM      9  C   UNL     1     -62.173 -59.380 -51.453  0.00  0.00    +0.000 C 
ATOM     10  C   UNL     1     -64.463 -56.499 -51.785  0.00  0.00    +0.000 C 
ATOM     11  C   UNL     1     -64.243 -56.202 -49.256  0.00  0.00    +0.000 C 
ATOM     12  C   UNL     1     -58.574 -58.708 -51.811  0.00  0.00    +0.000 C 
ATOM     13  C   UNL     1     -65.045 -56.021 -50.588  0.00  0.00    +0.000 C 
ATOM     14  C   UNL     1     -65.241 -56.503 -48.105  0.00  0.00    +0.000 C 
ATOM     15  C   UNL     1     -63.451 -54.889 -48.966  0.00  0.00    +0.000 C 
ENDROOT
BRANCH   4  16
ATOM     16  O   UNL     1     -58.628 -56.385 -52.007  0.00  0.00    +0.000 OA
ATOM     17  H   UNL     1     -59.243 -55.641 -51.872  0.00  0.00    +0.000 HD
ENDBRANCH   4  16
BRANCH  13  18
ATOM     18  O   UNL     1     -66.179 -55.222 -50.661  0.00  0.00    +0.000 OA
ATOM     19  H   UNL     1     -66.923 -55.585 -50.149  0.00  0.00    +0.000 HD
ENDBRANCH  13  18
BRANCH   3  20
ATOM     20  C   UNL     1     -60.761 -57.210 -53.671  0.00  0.00    +0.000 C 
ATOM     21  C   UNL     1     -60.769 -56.953 -55.181  0.00  0.00    +0.000 C 
BRANCH  21  25
ATOM     22  C   UNL     1     -59.472 -57.032 -57.413  0.00  0.00    +0.000 A 
ATOM     23  C   UNL     1     -59.494 -56.837 -58.978  0.00  0.00    +0.000 A 
ATOM     24  C   UNL     1     -58.159 -57.480 -56.647  0.00  0.00    +0.000 C 
ATOM     25  C   UNL     1     -60.755 -56.759 -56.597  0.00  0.00    +0.000 A 
ATOM     26  C   UNL     1     -58.346 -57.075 -59.985  0.00  0.00    +0.000 C 
ATOM     27  C   UNL     1     -57.140 -57.619 -57.692  0.00  0.00    +0.000 C 
ATOM     28  C   UNL     1     -57.192 -57.440 -59.185  0.00  0.00    +0.000 C 
ATOM     29  C   UNL     1     -60.764 -56.347 -59.404  0.00  0.00    +0.000 A 
ATOM     30  C   UNL     1     -62.019 -56.274 -57.218  0.00  0.00    +0.000 A 
ATOM     31  C   UNL     1     -58.392 -58.854 -55.973  0.00  0.00    +0.000 C 
ATOM     32  C   UNL     1     -57.724 -56.378 -55.657  0.00  0.00    +0.000 C 
ATOM     33  C   UNL     1     -61.935 -56.103 -58.499  0.00  0.00    +0.000 A 
ATOM     34  C   UNL     1     -58.723 -58.127 -61.019  0.00  0.00    +0.000 C 
ATOM     35  C   UNL     1     -63.341 -56.113 -56.526  0.00  0.00    +0.000 C 
BRANCH  26  36
ATOM     36  O   UNL     1     -58.079 -55.886 -60.684  0.00  0.00    +0.000 OA
ATOM     37  H   UNL     1     -58.785 -55.308 -60.342  0.00  0.00    +0.000 HD
ENDBRANCH  26  36
ENDBRANCH  21  25
ENDBRANCH   3  20
TORSDOF 5
ENDMDL
MODEL 3
REMARK VINA RESULT:      -6.5     14.865     18.768
REMARK  Name = 44234954_SipholenolL.pdbqt.pdb
REMARK  5 active torsions:
REMARK  status: ('A' for Active; 'I' for Inactive)
REMARK    1  A    between atoms: C_3  and  C_20
REMARK    2  A    between atoms: C_4  and  O_16
REMARK    3  A    between atoms: C_13  and  O_18
REMARK    4  A    between atoms: C_21  and  C_25
REMARK    5  A    between atoms: C_26  and  O_36
REMARK                            x       y       z     vdW  Elec       q    Type
REMARK                         _______ _______ _______ _____ _____    ______ ____
ROOT
ATOM      1  O   UNL     1     -50.072 -61.853 -75.668  0.00  0.00    +0.000 OA
ATOM      2  C   UNL     1     -49.019 -61.425 -78.013  0.00  0.00    +0.000 C 
ATOM      3  C   UNL     1     -49.365 -61.172 -79.482  0.00  0.00    +0.000 C 
ATOM      4  C   UNL     1     -50.430 -60.150 -79.834  0.00  0.00    +0.000 C 
ATOM      5  C   UNL     1     -50.239 -61.431 -76.991  0.00  0.00    +0.000 C 
ATOM      6  C   UNL     1     -48.487 -62.783 -77.821  0.00  0.00    +0.000 C 
ATOM      7  C   UNL     1     -51.330 -60.013 -78.704  0.00  0.00    +0.000 C 
ATOM      8  C   UNL     1     -51.320 -60.592 -77.328  0.00  0.00    +0.000 C 
ATOM      9  C   UNL     1     -47.982 -60.376 -77.531  0.00  0.00    +0.000 C 
ATOM     10  C   UNL     1     -48.595 -63.964 -76.891  0.00  0.00    +0.000 C 
ATOM     11  C   UNL     1     -50.445 -63.226 -75.288  0.00  0.00    +0.000 C 
ATOM     12  C   UNL     1     -49.825 -58.834 -80.316  0.00  0.00    +0.000 C 
ATOM     13  C   UNL     1     -49.377 -64.272 -75.754  0.00  0.00    +0.000 C 
ATOM     14  C   UNL     1     -50.508 -63.227 -73.737  0.00  0.00    +0.000 C 
ATOM     15  C   UNL     1     -51.828 -63.620 -75.895  0.00  0.00    +0.000 C 
ENDROOT
BRANCH   4  16
ATOM     16  O   UNL     1     -51.176 -60.631 -80.934  0.00  0.00    +0.000 OA
ATOM     17  H   UNL     1     -51.330 -59.803 -81.426  0.00  0.00    +0.000 HD
ENDBRANCH   4  16
BRANCH  13  18
ATOM     18  O   UNL     1     -49.332 -65.559 -75.232  0.00  0.00    +0.000 OA
ATOM     19  H   UNL     1     -49.061 -65.572 -74.297  0.00  0.00    +0.000 HD
ENDBRANCH  13  18
BRANCH   3  20
ATOM     20  C   UNL     1     -48.652 -61.844 -80.534  0.00  0.00    +0.000 C 
ATOM     21  C   UNL     1     -47.864 -62.564 -81.632  0.00  0.00    +0.000 C 
BRANCH  21  25
ATOM     22  C   UNL     1     -45.961 -62.534 -83.378  0.00  0.00    +0.000 A 
ATOM     23  C   UNL     1     -45.113 -63.329 -84.444  0.00  0.00    +0.000 A 
ATOM     24  C   UNL     1     -45.694 -61.001 -83.076  0.00  0.00    +0.000 C 
ATOM     25  C   UNL     1     -47.098 -63.256 -82.622  0.00  0.00    +0.000 A 
ATOM     26  C   UNL     1     -43.925 -62.819 -85.291  0.00  0.00    +0.000 C 
ATOM     27  C   UNL     1     -44.594 -60.625 -83.970  0.00  0.00    +0.000 C 
ATOM     28  C   UNL     1     -43.791 -61.411 -84.970  0.00  0.00    +0.000 C 
ATOM     29  C   UNL     1     -45.611 -64.658 -84.589  0.00  0.00    +0.000 A 
ATOM     30  C   UNL     1     -47.467 -64.675 -82.882  0.00  0.00    +0.000 A 
ATOM     31  C   UNL     1     -45.240 -60.831 -81.606  0.00  0.00    +0.000 C 
ATOM     32  C   UNL     1     -46.944 -60.167 -83.431  0.00  0.00    +0.000 C 
ATOM     33  C   UNL     1     -46.747 -65.238 -83.799  0.00  0.00    +0.000 A 
ATOM     34  C   UNL     1     -42.663 -63.626 -85.019  0.00  0.00    +0.000 C 
ATOM     35  C   UNL     1     -48.459 -65.489 -82.104  0.00  0.00    +0.000 C 
BRANCH  26  36
ATOM     36  O   UNL     1     -44.223 -62.966 -86.656  0.00  0.00    +0.000 OA
ATOM     37  H   UNL     1     -43.446 -62.540 -87.062  0.00  0.00    +0.000 HD
ENDBRANCH  26  36
ENDBRANCH  21  25
ENDBRANCH   3  20
TORSDOF 5
ENDMDL
MODEL 4
REMARK VINA RESULT:      -6.4     17.762     22.766
REMARK  Name = 44234954_SipholenolL.pdbqt.pdb
REMARK  5 active torsions:
REMARK  status: ('A' for Active; 'I' for Inactive)
REMARK    1  A    between atoms: C_3  and  C_20
REMARK    2  A    between atoms: C_4  and  O_16
REMARK    3  A    between atoms: C_13  and  O_18
REMARK    4  A    between atoms: C_21  and  C_25
REMARK    5  A    between atoms: C_26  and  O_36
REMARK                            x       y       z     vdW  Elec       q    Type
REMARK                         _______ _______ _______ _____ _____    ______ ____
ROOT
ATOM      1  O   UNL     1     -64.777 -56.849 -50.370  0.00  0.00    +0.000 OA
ATOM      2  C   UNL     1     -62.600 -57.562 -51.614  0.00  0.00    +0.000 C 
ATOM      3  C   UNL     1     -61.122 -57.207 -51.794  0.00  0.00    +0.000 C 
ATOM      4  C   UNL     1     -60.267 -56.923 -50.573  0.00  0.00    +0.000 C 
ATOM      5  C   UNL     1     -63.386 -56.760 -50.485  0.00  0.00    +0.000 C 
ATOM      6  C   UNL     1     -63.380 -57.201 -52.807  0.00  0.00    +0.000 C 
ATOM      7  C   UNL     1     -61.132 -56.475 -49.497  0.00  0.00    +0.000 C 
ATOM      8  C   UNL     1     -62.615 -56.356 -49.376  0.00  0.00    +0.000 C 
ATOM      9  C   UNL     1     -62.744 -59.079 -51.325  0.00  0.00    +0.000 C 
ATOM     10  C   UNL     1     -64.685 -56.558 -53.206  0.00  0.00    +0.000 C 
ATOM     11  C   UNL     1     -65.625 -55.797 -50.954  0.00  0.00    +0.000 C 
ATOM     12  C   UNL     1     -59.376 -58.107 -50.208  0.00  0.00    +0.000 C 
ATOM     13  C   UNL     1     -65.748 -55.940 -52.508  0.00  0.00    +0.000 C 
ATOM     14  C   UNL     1     -67.029 -55.992 -50.319  0.00  0.00    +0.000 C 
ATOM     15  C   UNL     1     -65.066 -54.378 -50.624  0.00  0.00    +0.000 C 
ENDROOT
BRANCH   4  16
ATOM     16  O   UNL     1     -59.370 -55.874 -50.880  0.00  0.00    +0.000 OA
ATOM     17  H   UNL     1     -58.539 -56.373 -50.993  0.00  0.00    +0.000 HD
ENDBRANCH   4  16
BRANCH  13  18
ATOM     18  O   UNL     1     -66.741 -55.290 -53.231  0.00  0.00    +0.000 OA
ATOM     19  H   UNL     1     -67.615 -55.703 -53.115  0.00  0.00    +0.000 HD
ENDBRANCH  13  18
BRANCH   3  20
ATOM     20  C   UNL     1     -60.520 -57.201 -53.099  0.00  0.00    +0.000 C 
ATOM     21  C   UNL     1     -59.892 -57.161 -54.496  0.00  0.00    +0.000 C 
BRANCH  21  25
ATOM     22  C   UNL     1     -60.197 -56.800 -57.034  0.00  0.00    +0.000 A 
ATOM     23  C   UNL     1     -59.525 -56.681 -58.457  0.00  0.00    +0.000 A 
ATOM     24  C   UNL     1     -61.764 -56.670 -56.838  0.00  0.00    +0.000 C 
ATOM     25  C   UNL     1     -59.311 -57.074 -55.799  0.00  0.00    +0.000 A 
ATOM     26  C   UNL     1     -60.208 -56.387 -59.812  0.00  0.00    +0.000 C 
ATOM     27  C   UNL     1     -62.297 -56.450 -58.187  0.00  0.00    +0.000 C 
ATOM     28  C   UNL     1     -61.629 -56.325 -59.530  0.00  0.00    +0.000 C 
ATOM     29  C   UNL     1     -58.123 -56.924 -58.370  0.00  0.00    +0.000 A 
ATOM     30  C   UNL     1     -57.838 -57.275 -55.889  0.00  0.00    +0.000 A 
ATOM     31  C   UNL     1     -62.079 -55.437 -55.957  0.00  0.00    +0.000 C 
ATOM     32  C   UNL     1     -62.337 -57.988 -56.275  0.00  0.00    +0.000 C 
ATOM     33  C   UNL     1     -57.378 -57.200 -57.097  0.00  0.00    +0.000 A 
ATOM     34  C   UNL     1     -59.660 -55.116 -60.446  0.00  0.00    +0.000 C 
ATOM     35  C   UNL     1     -56.890 -57.411 -54.734  0.00  0.00    +0.000 C 
BRANCH  26  36
ATOM     36  O   UNL     1     -59.950 -57.439 -60.706  0.00  0.00    +0.000 OA
ATOM     37  H   UNL     1     -59.730 -56.944 -61.517  0.00  0.00    +0.000 HD
ENDBRANCH  26  36
ENDBRANCH  21  25
ENDBRANCH   3  20
TORSDOF 5
ENDMDL
MODEL 5
REMARK VINA RESULT:      -6.4     18.125     22.864
REMARK  Name = 44234954_SipholenolL.pdbqt.pdb
REMARK  5 active torsions:
REMARK  status: ('A' for Active; 'I' for Inactive)
REMARK    1  A    between atoms: C_3  and  C_20
REMARK    2  A    between atoms: C_4  and  O_16
REMARK    3  A    between atoms: C_13  and  O_18
REMARK    4  A    between atoms: C_21  and  C_25
REMARK    5  A    between atoms: C_26  and  O_36
REMARK                            x       y       z     vdW  Elec       q    Type
REMARK                         _______ _______ _______ _____ _____    ______ ____
ROOT
ATOM      1  O   UNL     1     -57.359 -58.267 -49.633  0.00  0.00    +0.000 OA
ATOM      2  C   UNL     1     -59.077 -57.245 -51.305  0.00  0.00    +0.000 C 
ATOM      3  C   UNL     1     -60.456 -57.468 -51.931  0.00  0.00    +0.000 C 
ATOM      4  C   UNL     1     -61.627 -57.849 -51.045  0.00  0.00    +0.000 C 
ATOM      5  C   UNL     1     -58.664 -58.242 -50.135  0.00  0.00    +0.000 C 
ATOM      6  C   UNL     1     -58.006 -57.500 -52.280  0.00  0.00    +0.000 C 
ATOM      7  C   UNL     1     -61.112 -58.494 -49.851  0.00  0.00    +0.000 C 
ATOM      8  C   UNL     1     -59.727 -58.732 -49.349  0.00  0.00    +0.000 C 
ATOM      9  C   UNL     1     -58.972 -55.793 -50.770  0.00  0.00    +0.000 C 
ATOM     10  C   UNL     1     -56.662 -58.175 -52.397  0.00  0.00    +0.000 C 
ATOM     11  C   UNL     1     -56.414 -59.291 -50.110  0.00  0.00    +0.000 C 
ATOM     12  C   UNL     1     -62.546 -56.663 -50.769  0.00  0.00    +0.000 C 
ATOM     13  C   UNL     1     -55.857 -58.954 -51.534  0.00  0.00    +0.000 C 
ATOM     14  C   UNL     1     -55.239 -59.280 -49.094  0.00  0.00    +0.000 C 
ATOM     15  C   UNL     1     -57.087 -60.698 -50.156  0.00  0.00    +0.000 C 
ENDROOT
BRANCH   4  16
ATOM     16  O   UNL     1     -62.434 -58.782 -51.735  0.00  0.00    +0.000 OA
ATOM     17  H   UNL     1     -61.751 -59.337 -52.155  0.00  0.00    +0.000 HD
ENDBRANCH   4  16
BRANCH  13  18
ATOM     18  O   UNL     1     -54.722 -59.571 -52.045  0.00  0.00    +0.000 OA
ATOM     19  H   UNL     1     -53.899 -59.178 -51.704  0.00  0.00    +0.000 HD
ENDBRANCH  13  18
BRANCH   3  20
ATOM     20  C   UNL     1     -60.668 -57.260 -53.338  0.00  0.00    +0.000 C 
ATOM     21  C   UNL     1     -60.920 -57.015 -54.829  0.00  0.00    +0.000 C 
BRANCH  21  25
ATOM     22  C   UNL     1     -60.054 -56.889 -57.258  0.00  0.00    +0.000 A 
ATOM     23  C   UNL     1     -60.373 -56.610 -58.777  0.00  0.00    +0.000 A 
ATOM     24  C   UNL     1     -58.600 -57.295 -56.772  0.00  0.00    +0.000 C 
ATOM     25  C   UNL     1     -61.177 -56.743 -56.208  0.00  0.00    +0.000 A 
ATOM     26  C   UNL     1     -59.418 -56.719 -59.989  0.00  0.00    +0.000 C 
ATOM     27  C   UNL     1     -57.785 -57.311 -57.991  0.00  0.00    +0.000 C 
ATOM     28  C   UNL     1     -58.121 -57.054 -59.436  0.00  0.00    +0.000 C 
ATOM     29  C   UNL     1     -61.723 -56.178 -58.934  0.00  0.00    +0.000 A 
ATOM     30  C   UNL     1     -62.557 -56.304 -56.557  0.00  0.00    +0.000 A 
ATOM     31  C   UNL     1     -58.634 -58.716 -56.160  0.00  0.00    +0.000 C 
ATOM     32  C   UNL     1     -58.048 -56.224 -55.807  0.00  0.00    +0.000 C 
ATOM     33  C   UNL     1     -62.719 -56.058 -57.818  0.00  0.00    +0.000 A 
ATOM     34  C   UNL     1     -59.924 -57.733 -61.005  0.00  0.00    +0.000 C 
ATOM     35  C   UNL     1     -63.736 -56.266 -55.630  0.00  0.00    +0.000 C 
BRANCH  26  36
ATOM     36  O   UNL     1     -59.347 -55.479 -60.644  0.00  0.00    +0.000 OA
ATOM     37  H   UNL     1     -59.261 -55.764 -61.572  0.00  0.00    +0.000 HD
ENDBRANCH  26  36
ENDBRANCH  21  25
ENDBRANCH   3  20
TORSDOF 5
ENDMDL
MODEL 6
REMARK VINA RESULT:      -6.2     21.585     24.894
REMARK  Name = 44234954_SipholenolL.pdbqt.pdb
REMARK  5 active torsions:
REMARK  status: ('A' for Active; 'I' for Inactive)
REMARK    1  A    between atoms: C_3  and  C_20
REMARK    2  A    between atoms: C_4  and  O_16
REMARK    3  A    between atoms: C_13  and  O_18
REMARK    4  A    between atoms: C_21  and  C_25
REMARK    5  A    between atoms: C_26  and  O_36
REMARK                            x       y       z     vdW  Elec       q    Type
REMARK                         _______ _______ _______ _____ _____    ______ ____
ROOT
ATOM      1  O   UNL     1     -62.985 -44.156 -58.481  0.00  0.00    +0.000 OA
ATOM      2  C   UNL     1     -64.705 -45.338 -56.920  0.00  0.00    +0.000 C 
ATOM      3  C   UNL     1     -64.864 -45.979 -55.540  0.00  0.00    +0.000 C 
ATOM      4  C   UNL     1     -64.327 -45.263 -54.315  0.00  0.00    +0.000 C 
ATOM      5  C   UNL     1     -63.324 -44.596 -57.198  0.00  0.00    +0.000 C 
ATOM      6  C   UNL     1     -64.692 -46.358 -57.980  0.00  0.00    +0.000 C 
ATOM      7  C   UNL     1     -63.254 -44.379 -54.731  0.00  0.00    +0.000 C 
ATOM      8  C   UNL     1     -62.708 -44.014 -56.072  0.00  0.00    +0.000 C 
ATOM      9  C   UNL     1     -65.859 -44.331 -57.167  0.00  0.00    +0.000 C 
ATOM     10  C   UNL     1     -63.960 -46.725 -59.246  0.00  0.00    +0.000 C 
ATOM     11  C   UNL     1     -62.097 -44.976 -59.322  0.00  0.00    +0.000 C 
ATOM     12  C   UNL     1     -65.433 -44.575 -53.521  0.00  0.00    +0.000 C 
ATOM     13  C   UNL     1     -62.847 -46.201 -59.944  0.00  0.00    +0.000 C 
ATOM     14  C   UNL     1     -61.626 -44.040 -60.469  0.00  0.00    +0.000 C 
ATOM     15  C   UNL     1     -60.876 -45.499 -58.504  0.00  0.00    +0.000 C 
ENDROOT
BRANCH   4  16
ATOM     16  O   UNL     1     -63.786 -46.222 -53.429  0.00  0.00    +0.000 OA
ATOM     17  H   UNL     1     -63.903 -45.767 -52.574  0.00  0.00    +0.000 HD
ENDBRANCH   4  16
BRANCH  13  18
ATOM     18  O   UNL     1     -62.329 -46.914 -61.018  0.00  0.00    +0.000 OA
ATOM     19  H   UNL     1     -61.577 -46.459 -61.438  0.00  0.00    +0.000 HD
ENDBRANCH  13  18
BRANCH   3  20
ATOM     20  C   UNL     1     -65.572 -47.221 -55.383  0.00  0.00    +0.000 C 
ATOM     21  C   UNL     1     -66.295 -48.562 -55.221  0.00  0.00    +0.000 C 
BRANCH  21  25
ATOM     22  C   UNL     1     -66.423 -50.829 -53.993  0.00  0.00    +0.000 A 
ATOM     23  C   UNL     1     -67.155 -52.216 -53.821  0.00  0.00    +0.000 A 
ATOM     24  C   UNL     1     -65.167 -50.435 -53.111  0.00  0.00    +0.000 C 
ATOM     25  C   UNL     1     -66.925 -49.835 -55.063  0.00  0.00    +0.000 A 
ATOM     26  C   UNL     1     -66.842 -53.341 -52.808  0.00  0.00    +0.000 C 
ATOM     27  C   UNL     1     -64.939 -51.591 -52.239  0.00  0.00    +0.000 C 
ATOM     28  C   UNL     1     -65.665 -52.901 -52.085  0.00  0.00    +0.000 C 
ATOM     29  C   UNL     1     -68.191 -52.359 -54.791  0.00  0.00    +0.000 A 
ATOM     30  C   UNL     1     -68.056 -50.141 -55.983  0.00  0.00    +0.000 A 
ATOM     31  C   UNL     1     -65.506 -49.199 -52.244  0.00  0.00    +0.000 C 
ATOM     32  C   UNL     1     -63.931 -50.230 -54.014  0.00  0.00    +0.000 C 
ATOM     33  C   UNL     1     -68.571 -51.314 -55.799  0.00  0.00    +0.000 A 
ATOM     34  C   UNL     1     -68.036 -53.624 -51.907  0.00  0.00    +0.000 C 
ATOM     35  C   UNL     1     -68.691 -49.188 -56.953  0.00  0.00    +0.000 C 
BRANCH  26  36
ATOM     36  O   UNL     1     -66.555 -54.530 -53.499  0.00  0.00    +0.000 OA
ATOM     37  H   UNL     1     -66.388 -54.187 -54.396  0.00  0.00    +0.000 HD
ENDBRANCH  26  36
ENDBRANCH  21  25
ENDBRANCH   3  20
TORSDOF 5
ENDMDL
MODEL 7
REMARK VINA RESULT:      -6.2     20.959     23.736
REMARK  Name = 44234954_SipholenolL.pdbqt.pdb
REMARK  5 active torsions:
REMARK  status: ('A' for Active; 'I' for Inactive)
REMARK    1  A    between atoms: C_3  and  C_20
REMARK    2  A    between atoms: C_4  and  O_16
REMARK    3  A    between atoms: C_13  and  O_18
REMARK    4  A    between atoms: C_21  and  C_25
REMARK    5  A    between atoms: C_26  and  O_36
REMARK                            x       y       z     vdW  Elec       q    Type
REMARK                         _______ _______ _______ _____ _____    ______ ____
ROOT
ATOM      1  O   UNL     1     -66.754 -47.894 -54.276  0.00  0.00    +0.000 OA
ATOM      2  C   UNL     1     -65.942 -46.594 -56.383  0.00  0.00    +0.000 C 
ATOM      3  C   UNL     1     -65.637 -46.751 -57.875  0.00  0.00    +0.000 C 
ATOM      4  C   UNL     1     -66.629 -47.472 -58.769  0.00  0.00    +0.000 C 
ATOM      5  C   UNL     1     -66.621 -47.843 -55.667  0.00  0.00    +0.000 C 
ATOM      6  C   UNL     1     -64.702 -46.464 -55.602  0.00  0.00    +0.000 C 
ATOM      7  C   UNL     1     -67.409 -48.383 -57.952  0.00  0.00    +0.000 C 
ATOM      8  C   UNL     1     -67.460 -48.630 -56.481  0.00  0.00    +0.000 C 
ATOM      9  C   UNL     1     -66.843 -45.352 -56.159  0.00  0.00    +0.000 C 
ATOM     10  C   UNL     1     -64.062 -46.954 -54.328  0.00  0.00    +0.000 C 
ATOM     11  C   UNL     1     -65.775 -48.650 -53.476  0.00  0.00    +0.000 C 
ATOM     12  C   UNL     1     -67.465 -46.502 -59.598  0.00  0.00    +0.000 C 
ATOM     13  C   UNL     1     -64.427 -47.872 -53.316  0.00  0.00    +0.000 C 
ATOM     14  C   UNL     1     -66.425 -48.825 -52.077  0.00  0.00    +0.000 C 
ATOM     15  C   UNL     1     -65.478 -50.039 -54.122  0.00  0.00    +0.000 C 
ENDROOT
BRANCH   4  16
ATOM     16  O   UNL     1     -65.913 -48.237 -59.717  0.00  0.00    +0.000 OA
ATOM     17  H   UNL     1     -66.435 -49.061 -59.718  0.00  0.00    +0.000 HD
ENDBRANCH   4  16
BRANCH  13  18
ATOM     18  O   UNL     1     -63.491 -48.214 -52.347  0.00  0.00    +0.000 OA
ATOM     19  H   UNL     1     -63.752 -47.917 -51.457  0.00  0.00    +0.000 HD
ENDBRANCH  13  18
BRANCH   3  20
ATOM     20  C   UNL     1     -64.455 -46.170 -58.451  0.00  0.00    +0.000 C 
ATOM     21  C   UNL     1     -63.206 -45.562 -59.096  0.00  0.00    +0.000 C 
BRANCH  21  25
ATOM     22  C   UNL     1     -61.440 -43.683 -59.225  0.00  0.00    +0.000 A 
ATOM     23  C   UNL     1     -60.162 -43.098 -59.941  0.00  0.00    +0.000 A 
ATOM     24  C   UNL     1     -62.120 -42.944 -57.999  0.00  0.00    +0.000 C 
ATOM     25  C   UNL     1     -62.063 -44.998 -59.743  0.00  0.00    +0.000 A 
ATOM     26  C   UNL     1     -59.366 -41.823 -59.580  0.00  0.00    +0.000 C 
ATOM     27  C   UNL     1     -61.315 -41.737 -57.791  0.00  0.00    +0.000 C 
ATOM     28  C   UNL     1     -60.087 -41.208 -58.482  0.00  0.00    +0.000 C 
ATOM     29  C   UNL     1     -59.805 -43.901 -61.064  0.00  0.00    +0.000 A 
ATOM     30  C   UNL     1     -61.535 -45.731 -60.927  0.00  0.00    +0.000 A 
ATOM     31  C   UNL     1     -62.036 -43.839 -56.739  0.00  0.00    +0.000 C 
ATOM     32  C   UNL     1     -63.563 -42.535 -58.364  0.00  0.00    +0.000 C 
ATOM     33  C   UNL     1     -60.511 -45.159 -61.476  0.00  0.00    +0.000 A 
ATOM     34  C   UNL     1     -57.917 -42.149 -59.245  0.00  0.00    +0.000 C 
ATOM     35  C   UNL     1     -61.991 -47.075 -61.413  0.00  0.00    +0.000 C 
BRANCH  26  36
ATOM     36  O   UNL     1     -59.349 -40.951 -60.681  0.00  0.00    +0.000 OA
ATOM     37  H   UNL     1     -58.541 -41.246 -61.139  0.00  0.00    +0.000 HD
ENDBRANCH  26  36
ENDBRANCH  21  25
ENDBRANCH   3  20
TORSDOF 5
ENDMDL
MODEL 8
REMARK VINA RESULT:      -6.1     40.454     45.383
REMARK  Name = 44234954_SipholenolL.pdbqt.pdb
REMARK  5 active torsions:
REMARK  status: ('A' for Active; 'I' for Inactive)
REMARK    1  A    between atoms: C_3  and  C_20
REMARK    2  A    between atoms: C_4  and  O_16
REMARK    3  A    between atoms: C_13  and  O_18
REMARK    4  A    between atoms: C_21  and  C_25
REMARK    5  A    between atoms: C_26  and  O_36
REMARK                            x       y       z     vdW  Elec       q    Type
REMARK                         _______ _______ _______ _____ _____    ______ ____
ROOT
ATOM      1  O   UNL     1     -73.833 -56.389 -26.487  0.00  0.00    +0.000 OA
ATOM      2  C   UNL     1     -73.578 -55.670 -28.978  0.00  0.00    +0.000 C 
ATOM      3  C   UNL     1     -74.100 -55.945 -30.390  0.00  0.00    +0.000 C 
ATOM      4  C   UNL     1     -75.595 -56.045 -30.629  0.00  0.00    +0.000 C 
ATOM      5  C   UNL     1     -74.343 -56.400 -27.789  0.00  0.00    +0.000 C 
ATOM      6  C   UNL     1     -72.218 -56.202 -28.804  0.00  0.00    +0.000 C 
ATOM      7  C   UNL     1     -76.236 -56.434 -29.387  0.00  0.00    +0.000 C 
ATOM      8  C   UNL     1     -75.717 -56.636 -28.002  0.00  0.00    +0.000 C 
ATOM      9  C   UNL     1     -73.590 -54.143 -28.703  0.00  0.00    +0.000 C 
ATOM     10  C   UNL     1     -71.375 -56.965 -27.813  0.00  0.00    +0.000 C 
ATOM     11  C   UNL     1     -73.072 -57.549 -25.992  0.00  0.00    +0.000 C 
ATOM     12  C   UNL     1     -76.163 -54.775 -31.255  0.00  0.00    +0.000 C 
ATOM     13  C   UNL     1     -71.613 -57.576 -26.561  0.00  0.00    +0.000 C 
ATOM     14  C   UNL     1     -73.008 -57.380 -24.450  0.00  0.00    +0.000 C 
ATOM     15  C   UNL     1     -73.780 -58.887 -26.370  0.00  0.00    +0.000 C 
ENDROOT
BRANCH   4  16
ATOM     16  O   UNL     1     -75.836 -57.060 -31.583  0.00  0.00    +0.000 OA
ATOM     17  H   UNL     1     -75.216 -57.748 -31.277  0.00  0.00    +0.000 HD
ENDBRANCH   4  16
BRANCH  13  18
ATOM     18  O   UNL     1     -70.617 -58.360 -25.992  0.00  0.00    +0.000 OA
ATOM     19  H   UNL     1     -70.390 -59.130 -26.543  0.00  0.00    +0.000 HD
ENDBRANCH  13  18
BRANCH   3  20
ATOM     20  C   UNL     1     -73.195 -56.047 -31.503  0.00  0.00    +0.000 C 
ATOM     21  C   UNL     1     -72.217 -56.185 -32.674  0.00  0.00    +0.000 C 
BRANCH  21  25
ATOM     22  C   UNL     1     -69.915 -57.005 -33.508  0.00  0.00    +0.000 A 
ATOM     23  C   UNL     1     -68.932 -57.215 -34.724  0.00  0.00    +0.000 A 
ATOM     24  C   UNL     1     -69.514 -57.414 -32.030  0.00  0.00    +0.000 C 
ATOM     25  C   UNL     1     -71.298 -56.363 -33.754  0.00  0.00    +0.000 A 
ATOM     26  C   UNL     1     -67.524 -57.855 -34.712  0.00  0.00    +0.000 C 
ATOM     27  C   UNL     1     -68.154 -57.951 -32.143  0.00  0.00    +0.000 C 
ATOM     28  C   UNL     1     -67.241 -58.154 -33.322  0.00  0.00    +0.000 C 
ATOM     29  C   UNL     1     -69.496 -56.685 -35.921  0.00  0.00    +0.000 A 
ATOM     30  C   UNL     1     -71.741 -55.888 -35.094  0.00  0.00    +0.000 A 
ATOM     31  C   UNL     1     -70.462 -58.527 -31.521  0.00  0.00    +0.000 C 
ATOM     32  C   UNL     1     -69.493 -56.165 -31.124  0.00  0.00    +0.000 C 
ATOM     33  C   UNL     1     -70.857 -56.063 -36.024  0.00  0.00    +0.000 A 
ATOM     34  C   UNL     1     -67.462 -59.075 -35.620  0.00  0.00    +0.000 C 
ATOM     35  C   UNL     1     -73.109 -55.380 -35.447  0.00  0.00    +0.000 C 
BRANCH  26  36
ATOM     36  O   UNL     1     -66.584 -56.931 -35.197  0.00  0.00    +0.000 OA
ATOM     37  H   UNL     1     -66.972 -56.092 -34.887  0.00  0.00    +0.000 HD
ENDBRANCH  26  36
ENDBRANCH  21  25
ENDBRANCH   3  20
TORSDOF 5
ENDMDL
MODEL 9
REMARK VINA RESULT:      -6.0     34.568     40.658
REMARK  Name = 44234954_SipholenolL.pdbqt.pdb
REMARK  5 active torsions:
REMARK  status: ('A' for Active; 'I' for Inactive)
REMARK    1  A    between atoms: C_3  and  C_20
REMARK    2  A    between atoms: C_4  and  O_16
REMARK    3  A    between atoms: C_13  and  O_18
REMARK    4  A    between atoms: C_21  and  C_25
REMARK    5  A    between atoms: C_26  and  O_36
REMARK                            x       y       z     vdW  Elec       q    Type
REMARK                         _______ _______ _______ _____ _____    ______ ____
ROOT
ATOM      1  O   UNL     1     -69.148 -56.076 -41.779  0.00  0.00    +0.000 OA
ATOM      2  C   UNL     1     -70.207 -56.627 -39.462  0.00  0.00    +0.000 C 
ATOM      3  C   UNL     1     -71.067 -56.041 -38.340  0.00  0.00    +0.000 C 
ATOM      4  C   UNL     1     -72.344 -55.298 -38.686  0.00  0.00    +0.000 C 
ATOM      5  C   UNL     1     -70.067 -55.743 -40.778  0.00  0.00    +0.000 C 
ATOM      6  C   UNL     1     -68.800 -56.737 -39.048  0.00  0.00    +0.000 C 
ATOM      7  C   UNL     1     -72.224 -54.778 -40.036  0.00  0.00    +0.000 C 
ATOM      8  C   UNL     1     -71.176 -54.931 -41.088  0.00  0.00    +0.000 C 
ATOM      9  C   UNL     1     -70.751 -58.022 -39.866  0.00  0.00    +0.000 C 
ATOM     10  C   UNL     1     -67.404 -56.487 -39.560  0.00  0.00    +0.000 C 
ATOM     11  C   UNL     1     -67.844 -55.393 -41.828  0.00  0.00    +0.000 C 
ATOM     12  C   UNL     1     -73.586 -56.152 -38.452  0.00  0.00    +0.000 C 
ATOM     13  C   UNL     1     -66.856 -55.939 -40.743  0.00  0.00    +0.000 C 
ATOM     14  C   UNL     1     -67.265 -55.700 -43.236  0.00  0.00    +0.000 C 
ATOM     15  C   UNL     1     -68.009 -53.854 -41.626  0.00  0.00    +0.000 C 
ENDROOT
BRANCH   4  16
ATOM     16  O   UNL     1     -72.485 -54.202 -37.806  0.00  0.00    +0.000 OA
ATOM     17  H   UNL     1     -71.754 -54.373 -37.183  0.00  0.00    +0.000 HD
ENDBRANCH   4  16
BRANCH  13  18
ATOM     18  O   UNL     1     -65.489 -55.700 -40.806  0.00  0.00    +0.000 OA
ATOM     19  H   UNL     1     -64.985 -56.493 -41.064  0.00  0.00    +0.000 HD
ENDBRANCH  13  18
BRANCH   3  20
ATOM     20  C   UNL     1     -70.713 -56.239 -36.961  0.00  0.00    +0.000 C 
ATOM     21  C   UNL     1     -70.316 -56.478 -35.501  0.00  0.00    +0.000 C 
BRANCH  21  25
ATOM     22  C   UNL     1     -70.800 -56.300 -32.971  0.00  0.00    +0.000 A 
ATOM     23  C   UNL     1     -70.335 -56.613 -31.496  0.00  0.00    +0.000 A 
ATOM     24  C   UNL     1     -72.156 -55.537 -33.273  0.00  0.00    +0.000 C 
ATOM     25  C   UNL     1     -69.905 -56.727 -34.155  0.00  0.00    +0.000 A 
ATOM     26  C   UNL     1     -71.077 -56.304 -30.176  0.00  0.00    +0.000 C 
ATOM     27  C   UNL     1     -72.733 -55.254 -31.955  0.00  0.00    +0.000 C 
ATOM     28  C   UNL     1     -72.273 -55.578 -30.559  0.00  0.00    +0.000 C 
ATOM     29  C   UNL     1     -69.046 -57.224 -31.497  0.00  0.00    +0.000 A 
ATOM     30  C   UNL     1     -68.585 -57.391 -33.970  0.00  0.00    +0.000 A 
ATOM     31  C   UNL     1     -73.112 -56.465 -34.061  0.00  0.00    +0.000 C 
ATOM     32  C   UNL     1     -71.862 -54.204 -33.994  0.00  0.00    +0.000 C 
ATOM     33  C   UNL     1     -68.264 -57.572 -32.729  0.00  0.00    +0.000 A 
ATOM     34  C   UNL     1     -71.366 -57.576 -29.390  0.00  0.00    +0.000 C 
ATOM     35  C   UNL     1     -67.718 -57.956 -35.057  0.00  0.00    +0.000 C 
BRANCH  26  36
ATOM     36  O   UNL     1     -70.271 -55.490 -29.363  0.00  0.00    +0.000 OA
ATOM     37  H   UNL     1     -69.596 -55.200 -30.003  0.00  0.00    +0.000 HD
ENDBRANCH  26  36
ENDBRANCH  21  25
ENDBRANCH   3  20
TORSDOF 5
ENDMDL
