MODEL 1
REMARK VINA RESULT:      -5.4      0.000      0.000
REMARK  Name = 442793_6gingerol.pdbqt.pdb
REMARK  7 active torsions:
REMARK  status: ('A' for Active; 'I' for Inactive)
REMARK    1  A    between atoms: C_1  and  C_3
REMARK    2  A    between atoms: C_5  and  O_6
REMARK    3  A    between atoms: C_5  and  C_8
REMARK    4  A    between atoms: C_9  and  C_10
REMARK    5  A    between atoms: C_13  and  C_14
REMARK    6  A    between atoms: C_17  and  O_20
REMARK    7  A    between atoms: C_19  and  O_22
REMARK                            x       y       z     vdW  Elec       q    Type
REMARK                         _______ _______ _______ _____ _____    ______ ____
ROOT
ATOM      1  C   UNL     1     -69.982 -56.754 -30.632  0.00  0.00    +0.000 C 
ATOM      2  C   UNL     1     -69.292 -57.360 -31.860  0.00  0.00    +0.000 C 
ENDROOT
BRANCH   2   3
ATOM      3  C   UNL     1     -68.649 -57.924 -32.999  0.00  0.00    +0.000 A 
ATOM      4  C   UNL     1     -68.267 -59.264 -32.987  0.00  0.00    +0.000 A 
ATOM      5  C   UNL     1     -68.405 -57.136 -34.120  0.00  0.00    +0.000 A 
ATOM      6  C   UNL     1     -67.634 -59.832 -34.097  0.00  0.00    +0.000 A 
ATOM      7  C   UNL     1     -67.776 -57.688 -35.232  0.00  0.00    +0.000 A 
ATOM      8  C   UNL     1     -67.394 -59.029 -35.216  0.00  0.00    +0.000 A 
BRANCH   6   9
ATOM      9  O   UNL     1     -67.224 -61.141 -34.169  0.00  0.00    +0.000 OA
ATOM     10  C   UNL     1     -68.202 -62.061 -34.577  0.00  0.00    +0.000 C 
ENDBRANCH   6   9
BRANCH   8  11
ATOM     11  O   UNL     1     -66.777 -59.566 -36.312  0.00  0.00    +0.000 OA
ATOM     12  H   UNL     1     -65.812 -59.529 -36.176  0.00  0.00    +0.000 HD
ENDBRANCH   8  11
ENDBRANCH   2   3
BRANCH   1  14
ATOM     13  O   UNL     1     -70.488 -55.002 -29.209  0.00  0.00    +0.000 OA
ATOM     14  C   UNL     1     -70.629 -56.186 -29.476  0.00  0.00    +0.000 C 
ATOM     15  C   UNL     1     -71.439 -57.025 -28.636  0.00  0.00    +0.000 C 
ATOM     16  C   UNL     1     -72.234 -57.845 -27.807  0.00  0.00    +0.000 C 
BRANCH  16  17
ATOM     17  O   UNL     1     -72.573 -59.088 -28.284  0.00  0.00    +0.000 OA
ATOM     18  H   UNL     1     -73.019 -59.034 -29.148  0.00  0.00    +0.000 HD
ENDBRANCH  16  17
BRANCH  16  19
ATOM     19  C   UNL     1     -72.691 -57.455 -26.524  0.00  0.00    +0.000 C 
ATOM     20  C   UNL     1     -73.189 -57.042 -25.135  0.00  0.00    +0.000 C 
BRANCH  20  21
ATOM     21  C   UNL     1     -73.690 -56.635 -23.746  0.00  0.00    +0.000 C 
ATOM     22  C   UNL     1     -74.190 -56.230 -22.355  0.00  0.00    +0.000 C 
ATOM     23  C   UNL     1     -74.684 -55.829 -20.962  0.00  0.00    +0.000 C 
ENDBRANCH  20  21
ENDBRANCH  16  19
ENDBRANCH   1  14
TORSDOF 7
ENDMDL
MODEL 2
REMARK VINA RESULT:      -5.2      2.409     10.582
REMARK  Name = 442793_6gingerol.pdbqt.pdb
REMARK  7 active torsions:
REMARK  status: ('A' for Active; 'I' for Inactive)
REMARK    1  A    between atoms: C_1  and  C_3
REMARK    2  A    between atoms: C_5  and  O_6
REMARK    3  A    between atoms: C_5  and  C_8
REMARK    4  A    between atoms: C_9  and  C_10
REMARK    5  A    between atoms: C_13  and  C_14
REMARK    6  A    between atoms: C_17  and  O_20
REMARK    7  A    between atoms: C_19  and  O_22
REMARK                            x       y       z     vdW  Elec       q    Type
REMARK                         _______ _______ _______ _____ _____    ______ ____
ROOT
ATOM      1  C   UNL     1     -70.925 -56.474 -29.710  0.00  0.00    +0.000 C 
ATOM      2  C   UNL     1     -71.346 -56.956 -28.316  0.00  0.00    +0.000 C 
ENDROOT
BRANCH   2   3
ATOM      3  C   UNL     1     -71.736 -57.401 -27.020  0.00  0.00    +0.000 A 
ATOM      4  C   UNL     1     -72.908 -56.915 -26.444  0.00  0.00    +0.000 A 
ATOM      5  C   UNL     1     -70.946 -58.319 -26.335  0.00  0.00    +0.000 A 
ATOM      6  C   UNL     1     -73.303 -57.342 -25.173  0.00  0.00    +0.000 A 
ATOM      7  C   UNL     1     -71.328 -58.753 -25.068  0.00  0.00    +0.000 A 
ATOM      8  C   UNL     1     -72.501 -58.264 -24.494  0.00  0.00    +0.000 A 
BRANCH   6   9
ATOM      9  O   UNL     1     -74.440 -56.914 -24.531  0.00  0.00    +0.000 OA
ATOM     10  C   UNL     1     -74.469 -55.553 -24.191  0.00  0.00    +0.000 C 
ENDBRANCH   6   9
BRANCH   8  11
ATOM     11  O   UNL     1     -72.870 -58.694 -23.250  0.00  0.00    +0.000 OA
ATOM     12  H   UNL     1     -73.813 -58.942 -23.273  0.00  0.00    +0.000 HD
ENDBRANCH   8  11
ENDBRANCH   2   3
BRANCH   1  14
ATOM     13  O   UNL     1     -70.961 -54.966 -31.462  0.00  0.00    +0.000 OA
ATOM     14  C   UNL     1     -70.528 -56.018 -31.018  0.00  0.00    +0.000 C 
ATOM     15  C   UNL     1     -69.621 -56.813 -31.798  0.00  0.00    +0.000 C 
ATOM     16  C   UNL     1     -68.731 -57.592 -32.569  0.00  0.00    +0.000 C 
BRANCH  16  17
ATOM     17  O   UNL     1     -68.075 -58.618 -31.933  0.00  0.00    +0.000 OA
ATOM     18  H   UNL     1     -68.588 -58.966 -31.184  0.00  0.00    +0.000 HD
ENDBRANCH  16  17
BRANCH  16  19
ATOM     19  C   UNL     1     -68.488 -57.372 -33.947  0.00  0.00    +0.000 C 
ATOM     20  C   UNL     1     -68.223 -57.123 -35.436  0.00  0.00    +0.000 C 
BRANCH  20  21
ATOM     21  C   UNL     1     -67.960 -56.869 -36.923  0.00  0.00    +0.000 C 
ATOM     22  C   UNL     1     -67.698 -56.613 -38.411  0.00  0.00    +0.000 C 
ATOM     23  C   UNL     1     -67.441 -56.352 -39.898  0.00  0.00    +0.000 C 
ENDBRANCH  20  21
ENDBRANCH  16  19
ENDBRANCH   1  14
TORSDOF 7
ENDMDL
MODEL 3
REMARK VINA RESULT:      -5.2      3.058      5.057
REMARK  Name = 442793_6gingerol.pdbqt.pdb
REMARK  7 active torsions:
REMARK  status: ('A' for Active; 'I' for Inactive)
REMARK    1  A    between atoms: C_1  and  C_3
REMARK    2  A    between atoms: C_5  and  O_6
REMARK    3  A    between atoms: C_5  and  C_8
REMARK    4  A    between atoms: C_9  and  C_10
REMARK    5  A    between atoms: C_13  and  C_14
REMARK    6  A    between atoms: C_17  and  O_20
REMARK    7  A    between atoms: C_19  and  O_22
REMARK                            x       y       z     vdW  Elec       q    Type
REMARK                         _______ _______ _______ _____ _____    ______ ____
ROOT
ATOM      1  C   UNL     1     -68.181 -57.644 -33.959  0.00  0.00    +0.000 C 
ATOM      2  C   UNL     1     -68.047 -57.513 -35.481  0.00  0.00    +0.000 C 
ENDROOT
BRANCH   2   3
ATOM      3  C   UNL     1     -67.923 -57.393 -36.895  0.00  0.00    +0.000 A 
ATOM      4  C   UNL     1     -67.784 -56.133 -37.475  0.00  0.00    +0.000 A 
ATOM      5  C   UNL     1     -67.939 -58.534 -37.692  0.00  0.00    +0.000 A 
ATOM      6  C   UNL     1     -67.662 -56.000 -38.861  0.00  0.00    +0.000 A 
ATOM      7  C   UNL     1     -67.818 -58.416 -39.074  0.00  0.00    +0.000 A 
ATOM      8  C   UNL     1     -67.680 -57.153 -39.651  0.00  0.00    +0.000 A 
BRANCH   6   9
ATOM      9  O   UNL     1     -67.523 -54.799 -39.514  0.00  0.00    +0.000 OA
ATOM     10  C   UNL     1     -68.709 -54.074 -39.708  0.00  0.00    +0.000 C 
ENDBRANCH   6   9
BRANCH   8  11
ATOM     11  O   UNL     1     -67.561 -57.044 -41.008  0.00  0.00    +0.000 OA
ATOM     12  H   UNL     1     -68.054 -57.776 -41.425  0.00  0.00    +0.000 HD
ENDBRANCH   8  11
ENDBRANCH   2   3
BRANCH   1  14
ATOM     13  O   UNL     1     -67.423 -58.305 -31.877  0.00  0.00    +0.000 OA
ATOM     14  C   UNL     1     -68.307 -57.771 -32.529  0.00  0.00    +0.000 C 
ATOM     15  C   UNL     1     -69.483 -57.267 -31.876  0.00  0.00    +0.000 C 
ATOM     16  C   UNL     1     -70.638 -56.774 -31.229  0.00  0.00    +0.000 C 
BRANCH  16  17
ATOM     17  O   UNL     1     -71.471 -55.960 -31.957  0.00  0.00    +0.000 OA
ATOM     18  H   UNL     1     -71.778 -56.392 -32.773  0.00  0.00    +0.000 HD
ENDBRANCH  16  17
BRANCH  16  19
ATOM     19  C   UNL     1     -70.975 -57.078 -29.887  0.00  0.00    +0.000 C 
ATOM     20  C   UNL     1     -71.344 -57.397 -28.435  0.00  0.00    +0.000 C 
BRANCH  20  21
ATOM     21  C   UNL     1     -71.715 -57.710 -26.982  0.00  0.00    +0.000 C 
ATOM     22  C   UNL     1     -72.087 -58.022 -25.529  0.00  0.00    +0.000 C 
ATOM     23  C   UNL     1     -72.467 -58.333 -24.078  0.00  0.00    +0.000 C 
ENDBRANCH  20  21
ENDBRANCH  16  19
ENDBRANCH   1  14
TORSDOF 7
ENDMDL
MODEL 4
REMARK VINA RESULT:      -5.1      1.067      1.900
REMARK  Name = 442793_6gingerol.pdbqt.pdb
REMARK  7 active torsions:
REMARK  status: ('A' for Active; 'I' for Inactive)
REMARK    1  A    between atoms: C_1  and  C_3
REMARK    2  A    between atoms: C_5  and  O_6
REMARK    3  A    between atoms: C_5  and  C_8
REMARK    4  A    between atoms: C_9  and  C_10
REMARK    5  A    between atoms: C_13  and  C_14
REMARK    6  A    between atoms: C_17  and  O_20
REMARK    7  A    between atoms: C_19  and  O_22
REMARK                            x       y       z     vdW  Elec       q    Type
REMARK                         _______ _______ _______ _____ _____    ______ ____
ROOT
ATOM      1  C   UNL     1     -70.197 -56.674 -30.438  0.00  0.00    +0.000 C 
ATOM      2  C   UNL     1     -69.476 -57.259 -31.660  0.00  0.00    +0.000 C 
ENDROOT
BRANCH   2   3
ATOM      3  C   UNL     1     -68.807 -57.800 -32.794  0.00  0.00    +0.000 A 
ATOM      4  C   UNL     1     -69.341 -57.613 -34.068  0.00  0.00    +0.000 A 
ATOM      5  C   UNL     1     -67.623 -58.513 -32.628  0.00  0.00    +0.000 A 
ATOM      6  C   UNL     1     -68.696 -58.138 -35.192  0.00  0.00    +0.000 A 
ATOM      7  C   UNL     1     -66.970 -59.041 -33.739  0.00  0.00    +0.000 A 
ATOM      8  C   UNL     1     -67.508 -58.853 -35.011  0.00  0.00    +0.000 A 
BRANCH   6   9
ATOM      9  O   UNL     1     -69.152 -58.002 -36.480  0.00  0.00    +0.000 OA
ATOM     10  C   UNL     1     -69.256 -56.684 -36.951  0.00  0.00    +0.000 C 
ENDBRANCH   6   9
BRANCH   8  11
ATOM     11  O   UNL     1     -66.862 -59.374 -36.098  0.00  0.00    +0.000 OA
ATOM     12  H   UNL     1     -67.187 -60.282 -36.248  0.00  0.00    +0.000 HD
ENDBRANCH   8  11
ENDBRANCH   2   3
BRANCH   1  14
ATOM     13  O   UNL     1     -70.864 -54.917 -29.092  0.00  0.00    +0.000 OA
ATOM     14  C   UNL     1     -70.873 -56.122 -29.292  0.00  0.00    +0.000 C 
ATOM     15  C   UNL     1     -71.557 -57.000 -28.384  0.00  0.00    +0.000 C 
ATOM     16  C   UNL     1     -72.229 -57.859 -27.488  0.00  0.00    +0.000 C 
BRANCH  16  17
ATOM     17  O   UNL     1     -72.434 -59.157 -27.889  0.00  0.00    +0.000 OA
ATOM     18  H   UNL     1     -73.324 -59.472 -27.655  0.00  0.00    +0.000 HD
ENDBRANCH  16  17
BRANCH  16  19
ATOM     19  C   UNL     1     -72.694 -57.454 -26.212  0.00  0.00    +0.000 C 
ATOM     20  C   UNL     1     -73.193 -57.007 -24.834  0.00  0.00    +0.000 C 
BRANCH  20  21
ATOM     21  C   UNL     1     -73.689 -56.554 -23.458  0.00  0.00    +0.000 C 
ATOM     22  C   UNL     1     -74.188 -56.102 -22.081  0.00  0.00    +0.000 C 
ATOM     23  C   UNL     1     -74.692 -55.653 -20.706  0.00  0.00    +0.000 C 
ENDBRANCH  20  21
ENDBRANCH  16  19
ENDBRANCH   1  14
TORSDOF 7
ENDMDL
MODEL 5
REMARK VINA RESULT:      -5.0      2.826      4.500
REMARK  Name = 442793_6gingerol.pdbqt.pdb
REMARK  7 active torsions:
REMARK  status: ('A' for Active; 'I' for Inactive)
REMARK    1  A    between atoms: C_1  and  C_3
REMARK    2  A    between atoms: C_5  and  O_6
REMARK    3  A    between atoms: C_5  and  C_8
REMARK    4  A    between atoms: C_9  and  C_10
REMARK    5  A    between atoms: C_13  and  C_14
REMARK    6  A    between atoms: C_17  and  O_20
REMARK    7  A    between atoms: C_19  and  O_22
REMARK                            x       y       z     vdW  Elec       q    Type
REMARK                         _______ _______ _______ _____ _____    ______ ____
ROOT
ATOM      1  C   UNL     1     -68.192 -57.654 -33.973  0.00  0.00    +0.000 C 
ATOM      2  C   UNL     1     -68.061 -57.551 -35.498  0.00  0.00    +0.000 C 
ENDROOT
BRANCH   2   3
ATOM      3  C   UNL     1     -67.936 -57.455 -36.913  0.00  0.00    +0.000 A 
ATOM      4  C   UNL     1     -67.990 -58.607 -37.694  0.00  0.00    +0.000 A 
ATOM      5  C   UNL     1     -67.762 -56.210 -37.511  0.00  0.00    +0.000 A 
ATOM      6  C   UNL     1     -67.869 -58.529 -39.085  0.00  0.00    +0.000 A 
ATOM      7  C   UNL     1     -67.640 -56.117 -38.895  0.00  0.00    +0.000 A 
ATOM      8  C   UNL     1     -67.693 -57.273 -39.673  0.00  0.00    +0.000 A 
BRANCH   6   9
ATOM      9  O   UNL     1     -67.909 -59.612 -39.928  0.00  0.00    +0.000 OA
ATOM     10  C   UNL     1     -66.807 -60.478 -39.855  0.00  0.00    +0.000 C 
ENDBRANCH   6   9
BRANCH   8  11
ATOM     11  O   UNL     1     -67.573 -57.174 -41.032  0.00  0.00    +0.000 OA
ATOM     12  H   UNL     1     -68.391 -57.510 -41.443  0.00  0.00    +0.000 HD
ENDBRANCH   8  11
ENDBRANCH   2   3
BRANCH   1  14
ATOM     13  O   UNL     1     -67.410 -58.236 -31.876  0.00  0.00    +0.000 OA
ATOM     14  C   UNL     1     -68.312 -57.749 -32.540  0.00  0.00    +0.000 C 
ATOM     15  C   UNL     1     -69.504 -57.269 -31.898  0.00  0.00    +0.000 C 
ATOM     16  C   UNL     1     -70.674 -56.800 -31.261  0.00  0.00    +0.000 C 
BRANCH  16  17
ATOM     17  O   UNL     1     -71.535 -56.033 -32.008  0.00  0.00    +0.000 OA
ATOM     18  H   UNL     1     -71.848 -55.256 -31.513  0.00  0.00    +0.000 HD
ENDBRANCH  16  17
BRANCH  16  19
ATOM     19  C   UNL     1     -71.000 -57.081 -29.912  0.00  0.00    +0.000 C 
ATOM     20  C   UNL     1     -71.362 -57.383 -28.454  0.00  0.00    +0.000 C 
BRANCH  20  21
ATOM     21  C   UNL     1     -71.729 -57.682 -26.997  0.00  0.00    +0.000 C 
ATOM     22  C   UNL     1     -72.096 -57.983 -25.540  0.00  0.00    +0.000 C 
ATOM     23  C   UNL     1     -72.459 -58.290 -24.084  0.00  0.00    +0.000 C 
ENDBRANCH  20  21
ENDBRANCH  16  19
ENDBRANCH   1  14
TORSDOF 7
ENDMDL
MODEL 6
REMARK VINA RESULT:      -5.0     39.454     44.729
REMARK  Name = 442793_6gingerol.pdbqt.pdb
REMARK  7 active torsions:
REMARK  status: ('A' for Active; 'I' for Inactive)
REMARK    1  A    between atoms: C_1  and  C_3
REMARK    2  A    between atoms: C_5  and  O_6
REMARK    3  A    between atoms: C_5  and  C_8
REMARK    4  A    between atoms: C_9  and  C_10
REMARK    5  A    between atoms: C_13  and  C_14
REMARK    6  A    between atoms: C_17  and  O_20
REMARK    7  A    between atoms: C_19  and  O_22
REMARK                            x       y       z     vdW  Elec       q    Type
REMARK                         _______ _______ _______ _____ _____    ______ ____
ROOT
ATOM      1  C   UNL     1     -65.592 -60.757 -74.985  0.00  0.00    +0.000 C 
ATOM      2  C   UNL     1     -64.812 -60.705 -76.305  0.00  0.00    +0.000 C 
ENDROOT
BRANCH   2   3
ATOM      3  C   UNL     1     -64.087 -60.653 -77.530  0.00  0.00    +0.000 A 
ATOM      4  C   UNL     1     -63.477 -59.464 -77.925  0.00  0.00    +0.000 A 
ATOM      5  C   UNL     1     -63.991 -61.790 -78.327  0.00  0.00    +0.000 A 
ATOM      6  C   UNL     1     -62.763 -59.398 -79.125  0.00  0.00    +0.000 A 
ATOM      7  C   UNL     1     -63.283 -61.738 -79.525  0.00  0.00    +0.000 A 
ATOM      8  C   UNL     1     -62.674 -60.547 -79.918  0.00  0.00    +0.000 A 
BRANCH   6   9
ATOM      9  O   UNL     1     -62.133 -58.269 -79.591  0.00  0.00    +0.000 OA
ATOM     10  C   UNL     1     -62.812 -57.062 -79.367  0.00  0.00    +0.000 C 
ENDBRANCH   6   9
BRANCH   8  11
ATOM     11  O   UNL     1     -61.980 -60.503 -81.095  0.00  0.00    +0.000 OA
ATOM     12  H   UNL     1     -61.504 -61.346 -81.208  0.00  0.00    +0.000 HD
ENDBRANCH   8  11
ENDBRANCH   2   3
BRANCH   1  14
ATOM     13  O   UNL     1     -67.529 -60.596 -73.732  0.00  0.00    +0.000 OA
ATOM     14  C   UNL     1     -66.325 -60.803 -73.745  0.00  0.00    +0.000 C 
ATOM     15  C   UNL     1     -65.628 -61.091 -72.523  0.00  0.00    +0.000 C 
ATOM     16  C   UNL     1     -64.947 -61.371 -71.318  0.00  0.00    +0.000 C 
BRANCH  16  17
ATOM     17  O   UNL     1     -63.663 -61.850 -71.414  0.00  0.00    +0.000 OA
ATOM     18  H   UNL     1     -63.624 -62.812 -71.277  0.00  0.00    +0.000 HD
ENDBRANCH  16  17
BRANCH  16  19
ATOM     19  C   UNL     1     -65.515 -61.184 -70.034  0.00  0.00    +0.000 C 
ATOM     20  C   UNL     1     -66.124 -60.973 -68.644  0.00  0.00    +0.000 C 
BRANCH  20  21
ATOM     21  C   UNL     1     -66.729 -60.758 -67.253  0.00  0.00    +0.000 C 
ATOM     22  C   UNL     1     -67.331 -60.542 -65.861  0.00  0.00    +0.000 C 
ATOM     23  C   UNL     1     -67.927 -60.325 -64.466  0.00  0.00    +0.000 C 
ENDBRANCH  20  21
ENDBRANCH  16  19
ENDBRANCH   1  14
TORSDOF 7
ENDMDL
MODEL 7
REMARK VINA RESULT:      -5.0     39.429     44.636
REMARK  Name = 442793_6gingerol.pdbqt.pdb
REMARK  7 active torsions:
REMARK  status: ('A' for Active; 'I' for Inactive)
REMARK    1  A    between atoms: C_1  and  C_3
REMARK    2  A    between atoms: C_5  and  O_6
REMARK    3  A    between atoms: C_5  and  C_8
REMARK    4  A    between atoms: C_9  and  C_10
REMARK    5  A    between atoms: C_13  and  C_14
REMARK    6  A    between atoms: C_17  and  O_20
REMARK    7  A    between atoms: C_19  and  O_22
REMARK                            x       y       z     vdW  Elec       q    Type
REMARK                         _______ _______ _______ _____ _____    ______ ____
ROOT
ATOM      1  C   UNL     1     -65.719 -60.914 -74.876  0.00  0.00    +0.000 C 
ATOM      2  C   UNL     1     -64.883 -60.778 -76.154  0.00  0.00    +0.000 C 
ENDROOT
BRANCH   2   3
ATOM      3  C   UNL     1     -64.105 -60.655 -77.341  0.00  0.00    +0.000 A 
ATOM      4  C   UNL     1     -63.835 -61.783 -78.113  0.00  0.00    +0.000 A 
ATOM      5  C   UNL     1     -63.618 -59.409 -77.726  0.00  0.00    +0.000 A 
ATOM      6  C   UNL     1     -63.072 -61.678 -79.280  0.00  0.00    +0.000 A 
ATOM      7  C   UNL     1     -62.858 -59.290 -78.886  0.00  0.00    +0.000 A 
ATOM      8  C   UNL     1     -62.589 -60.421 -79.655  0.00  0.00    +0.000 A 
BRANCH   6   9
ATOM      9  O   UNL     1     -62.758 -62.737 -80.097  0.00  0.00    +0.000 OA
ATOM     10  C   UNL     1     -63.849 -63.383 -80.698  0.00  0.00    +0.000 C 
ENDBRANCH   6   9
BRANCH   8  11
ATOM     11  O   UNL     1     -61.841 -60.297 -80.794  0.00  0.00    +0.000 OA
ATOM     12  H   UNL     1     -62.412 -59.954 -81.506  0.00  0.00    +0.000 HD
ENDBRANCH   8  11
ENDBRANCH   2   3
BRANCH   1  14
ATOM     13  O   UNL     1     -67.722 -61.129 -73.740  0.00  0.00    +0.000 OA
ATOM     14  C   UNL     1     -66.505 -61.044 -73.675  0.00  0.00    +0.000 C 
ATOM     15  C   UNL     1     -65.846 -61.071 -72.399  0.00  0.00    +0.000 C 
ATOM     16  C   UNL     1     -65.204 -61.096 -71.142  0.00  0.00    +0.000 C 
BRANCH  16  17
ATOM     17  O   UNL     1     -63.840 -61.262 -71.132  0.00  0.00    +0.000 OA
ATOM     18  H   UNL     1     -63.557 -61.890 -70.445  0.00  0.00    +0.000 HD
ENDBRANCH  16  17
BRANCH  16  19
ATOM     19  C   UNL     1     -65.887 -60.959 -69.909  0.00  0.00    +0.000 C 
ATOM     20  C   UNL     1     -66.634 -60.811 -68.579  0.00  0.00    +0.000 C 
BRANCH  20  21
ATOM     21  C   UNL     1     -67.387 -60.663 -67.253  0.00  0.00    +0.000 C 
ATOM     22  C   UNL     1     -68.141 -60.513 -65.928  0.00  0.00    +0.000 C 
ATOM     23  C   UNL     1     -68.900 -60.359 -64.606  0.00  0.00    +0.000 C 
ENDBRANCH  20  21
ENDBRANCH  16  19
ENDBRANCH   1  14
TORSDOF 7
ENDMDL
MODEL 8
REMARK VINA RESULT:      -4.9      3.388     11.927
REMARK  Name = 442793_6gingerol.pdbqt.pdb
REMARK  7 active torsions:
REMARK  status: ('A' for Active; 'I' for Inactive)
REMARK    1  A    between atoms: C_1  and  C_3
REMARK    2  A    between atoms: C_5  and  O_6
REMARK    3  A    between atoms: C_5  and  C_8
REMARK    4  A    between atoms: C_9  and  C_10
REMARK    5  A    between atoms: C_13  and  C_14
REMARK    6  A    between atoms: C_17  and  O_20
REMARK    7  A    between atoms: C_19  and  O_22
REMARK                            x       y       z     vdW  Elec       q    Type
REMARK                         _______ _______ _______ _____ _____    ______ ____
ROOT
ATOM      1  C   UNL     1     -72.511 -57.761 -25.091  0.00  0.00    +0.000 C 
ATOM      2  C   UNL     1     -73.267 -57.290 -23.842  0.00  0.00    +0.000 C 
ENDROOT
BRANCH   2   3
ATOM      3  C   UNL     1     -73.967 -56.855 -22.681  0.00  0.00    +0.000 A 
ATOM      4  C   UNL     1     -73.304 -56.104 -21.712  0.00  0.00    +0.000 A 
ATOM      5  C   UNL     1     -75.310 -57.181 -22.517  0.00  0.00    +0.000 A 
ATOM      6  C   UNL     1     -73.978 -55.670 -20.567  0.00  0.00    +0.000 A 
ATOM      7  C   UNL     1     -75.994 -56.755 -21.381  0.00  0.00    +0.000 A 
ATOM      8  C   UNL     1     -75.327 -56.004 -20.414  0.00  0.00    +0.000 A 
BRANCH   6   9
ATOM      9  O   UNL     1     -73.402 -54.928 -19.564  0.00  0.00    +0.000 OA
ATOM     10  C   UNL     1     -73.000 -53.633 -19.923  0.00  0.00    +0.000 C 
ENDBRANCH   6   9
BRANCH   8  11
ATOM     11  O   UNL     1     -76.004 -55.589 -19.301  0.00  0.00    +0.000 OA
ATOM     12  H   UNL     1     -76.796 -55.095 -19.583  0.00  0.00    +0.000 HD
ENDBRANCH   8  11
ENDBRANCH   2   3
BRANCH   1  14
ATOM     13  O   UNL     1     -71.179 -59.259 -26.245  0.00  0.00    +0.000 OA
ATOM     14  C   UNL     1     -71.800 -58.206 -26.262  0.00  0.00    +0.000 C 
ATOM     15  C   UNL     1     -71.823 -57.401 -27.452  0.00  0.00    +0.000 C 
ATOM     16  C   UNL     1     -71.842 -56.612 -28.622  0.00  0.00    +0.000 C 
BRANCH  16  17
ATOM     17  O   UNL     1     -72.754 -55.586 -28.679  0.00  0.00    +0.000 OA
ATOM     18  H   UNL     1     -72.516 -54.857 -28.079  0.00  0.00    +0.000 HD
ENDBRANCH  16  17
BRANCH  16  19
ATOM     19  C   UNL     1     -70.976 -56.822 -29.724  0.00  0.00    +0.000 C 
ATOM     20  C   UNL     1     -70.036 -57.057 -30.911  0.00  0.00    +0.000 C 
BRANCH  20  21
ATOM     21  C   UNL     1     -69.093 -57.296 -32.094  0.00  0.00    +0.000 C 
ATOM     22  C   UNL     1     -68.151 -57.537 -33.277  0.00  0.00    +0.000 C 
ATOM     23  C   UNL     1     -67.214 -57.781 -34.465  0.00  0.00    +0.000 C 
ENDBRANCH  20  21
ENDBRANCH  16  19
ENDBRANCH   1  14
TORSDOF 7
ENDMDL
MODEL 9
REMARK VINA RESULT:      -4.8     14.831     16.812
REMARK  Name = 442793_6gingerol.pdbqt.pdb
REMARK  7 active torsions:
REMARK  status: ('A' for Active; 'I' for Inactive)
REMARK    1  A    between atoms: C_1  and  C_3
REMARK    2  A    between atoms: C_5  and  O_6
REMARK    3  A    between atoms: C_5  and  C_8
REMARK    4  A    between atoms: C_9  and  C_10
REMARK    5  A    between atoms: C_13  and  C_14
REMARK    6  A    between atoms: C_17  and  O_20
REMARK    7  A    between atoms: C_19  and  O_22
REMARK                            x       y       z     vdW  Elec       q    Type
REMARK                         _______ _______ _______ _____ _____    ______ ____
ROOT
ATOM      1  C   UNL     1     -64.727 -56.213 -15.270  0.00  0.00    +0.000 C 
ATOM      2  C   UNL     1     -64.576 -57.739 -15.284  0.00  0.00    +0.000 C 
ENDROOT
BRANCH   2   3
ATOM      3  C   UNL     1     -64.432 -59.156 -15.297  0.00  0.00    +0.000 A 
ATOM      4  C   UNL     1     -65.095 -59.928 -14.344  0.00  0.00    +0.000 A 
ATOM      5  C   UNL     1     -63.632 -59.764 -16.259  0.00  0.00    +0.000 A 
ATOM      6  C   UNL     1     -64.963 -61.320 -14.343  0.00  0.00    +0.000 A 
ATOM      7  C   UNL     1     -63.492 -61.149 -16.270  0.00  0.00    +0.000 A 
ATOM      8  C   UNL     1     -64.156 -61.919 -15.315  0.00  0.00    +0.000 A 
BRANCH   6   9
ATOM      9  O   UNL     1     -65.578 -62.155 -13.442  0.00  0.00    +0.000 OA
ATOM     10  C   UNL     1     -66.126 -61.530 -12.312  0.00  0.00    +0.000 C 
ENDBRANCH   6   9
BRANCH   8  11
ATOM     11  O   UNL     1     -64.015 -63.279 -15.331  0.00  0.00    +0.000 OA
ATOM     12  H   UNL     1     -63.073 -63.493 -15.473  0.00  0.00    +0.000 HD
ENDBRANCH   8  11
ENDBRANCH   2   3
BRANCH   1  14
ATOM     13  O   UNL     1     -64.590 -54.142 -14.250  0.00  0.00    +0.000 OA
ATOM     14  C   UNL     1     -64.867 -54.778 -15.255  0.00  0.00    +0.000 C 
ATOM     15  C   UNL     1     -65.336 -54.102 -16.433  0.00  0.00    +0.000 C 
ATOM     16  C   UNL     1     -65.799 -53.433 -17.586  0.00  0.00    +0.000 C 
BRANCH  16  17
ATOM     17  O   UNL     1     -65.844 -54.150 -18.757  0.00  0.00    +0.000 OA
ATOM     18  H   UNL     1     -66.758 -54.336 -19.033  0.00  0.00    +0.000 HD
ENDBRANCH  16  17
BRANCH  16  19
ATOM     19  C   UNL     1     -66.215 -52.079 -17.594  0.00  0.00    +0.000 C 
ATOM     20  C   UNL     1     -66.656 -50.612 -17.600  0.00  0.00    +0.000 C 
BRANCH  20  21
ATOM     21  C   UNL     1     -67.092 -49.143 -17.602  0.00  0.00    +0.000 C 
ATOM     22  C   UNL     1     -67.525 -47.674 -17.605  0.00  0.00    +0.000 C 
ATOM     23  C   UNL     1     -67.952 -46.203 -17.609  0.00  0.00    +0.000 C 
ENDBRANCH  20  21
ENDBRANCH  16  19
ENDBRANCH   1  14
TORSDOF 7
ENDMDL
