MODEL 1
REMARK VINA RESULT:      -6.7      0.000      0.000
REMARK  Name = 44423609_SipholenoneA.pdbqt.pdb
REMARK  4 active torsions:
REMARK  status: ('A' for Active; 'I' for Inactive)
REMARK    1  A    between atoms: C_3  and  C_19
REMARK    2  A    between atoms: C_5  and  O_17
REMARK    3  A    between atoms: C_20  and  C_24
REMARK    4  A    between atoms: C_25  and  O_35
REMARK                            x       y       z     vdW  Elec       q    Type
REMARK                         _______ _______ _______ _____ _____    ______ ____
ROOT
ATOM      1  O   UNL     1     -59.836 -57.483 -56.471  0.00  0.00    +0.000 OA
ATOM      2  O   UNL     1     -63.104 -56.151 -57.582  0.00  0.00    +0.000 OA
ATOM      3  C   UNL     1     -59.830 -57.148 -52.534  0.00  0.00    +0.000 C 
ATOM      4  C   UNL     1     -60.248 -57.668 -53.909  0.00  0.00    +0.000 C 
ATOM      5  C   UNL     1     -58.369 -56.850 -52.243  0.00  0.00    +0.000 C 
ATOM      6  C   UNL     1     -59.407 -57.203 -55.169  0.00  0.00    +0.000 C 
ATOM      7  C   UNL     1     -57.646 -56.773 -53.498  0.00  0.00    +0.000 C 
ATOM      8  C   UNL     1     -58.049 -56.913 -54.927  0.00  0.00    +0.000 C 
ATOM      9  C   UNL     1     -61.586 -57.170 -54.268  0.00  0.00    +0.000 C 
ATOM     10  C   UNL     1     -60.260 -59.223 -53.893  0.00  0.00    +0.000 C 
ATOM     11  C   UNL     1     -58.225 -55.559 -51.430  0.00  0.00    +0.000 C 
ATOM     12  C   UNL     1     -62.369 -56.688 -55.470  0.00  0.00    +0.000 C 
ATOM     13  C   UNL     1     -60.578 -56.472 -57.232  0.00  0.00    +0.000 C 
ATOM     14  C   UNL     1     -62.144 -56.418 -56.871  0.00  0.00    +0.000 C 
ATOM     15  C   UNL     1     -60.388 -56.881 -58.729  0.00  0.00    +0.000 C 
ATOM     16  C   UNL     1     -59.950 -55.046 -57.010  0.00  0.00    +0.000 C 
ENDROOT
BRANCH   5  17
ATOM     17  O   UNL     1     -57.827 -57.871 -51.443  0.00  0.00    +0.000 OA
ATOM     18  H   UNL     1     -56.887 -57.830 -51.697  0.00  0.00    +0.000 HD
ENDBRANCH   5  17
BRANCH   3  19
ATOM     19  C   UNL     1     -60.776 -57.190 -51.449  0.00  0.00    +0.000 C 
ATOM     20  C   UNL     1     -61.782 -57.222 -50.296  0.00  0.00    +0.000 C 
BRANCH  20  24
ATOM     21  C   UNL     1     -62.618 -58.933 -47.206  0.00  0.00    +0.000 C 
ATOM     22  C   UNL     1     -63.225 -58.569 -48.584  0.00  0.00    +0.000 C 
ATOM     23  C   UNL     1     -62.805 -58.153 -45.930  0.00  0.00    +0.000 C 
ATOM     24  C   UNL     1     -62.719 -57.246 -49.209  0.00  0.00    +0.000 C 
ATOM     25  C   UNL     1     -62.103 -58.821 -44.746  0.00  0.00    +0.000 C 
ATOM     26  C   UNL     1     -61.843 -60.080 -46.871  0.00  0.00    +0.000 C 
ATOM     27  C   UNL     1     -61.554 -60.003 -45.398  0.00  0.00    +0.000 C 
ATOM     28  C   UNL     1     -63.078 -56.781 -46.106  0.00  0.00    +0.000 C 
ATOM     29  C   UNL     1     -63.127 -55.966 -48.627  0.00  0.00    +0.000 C 
ATOM     30  C   UNL     1     -62.912 -59.753 -49.578  0.00  0.00    +0.000 C 
ATOM     31  C   UNL     1     -64.784 -58.528 -48.444  0.00  0.00    +0.000 C 
ATOM     32  C   UNL     1     -63.208 -55.921 -47.334  0.00  0.00    +0.000 C 
ATOM     33  C   UNL     1     -63.052 -59.074 -43.587  0.00  0.00    +0.000 C 
ATOM     34  C   UNL     1     -63.034 -54.647 -49.350  0.00  0.00    +0.000 C 
BRANCH  25  35
ATOM     35  O   UNL     1     -61.067 -58.001 -44.262  0.00  0.00    +0.000 OA
ATOM     36  H   UNL     1     -60.290 -58.549 -44.472  0.00  0.00    +0.000 HD
ENDBRANCH  25  35
ENDBRANCH  20  24
ENDBRANCH   3  19
TORSDOF 4
ENDMDL
MODEL 2
REMARK VINA RESULT:      -6.6      9.053     14.045
REMARK  Name = 44423609_SipholenoneA.pdbqt.pdb
REMARK  4 active torsions:
REMARK  status: ('A' for Active; 'I' for Inactive)
REMARK    1  A    between atoms: C_3  and  C_19
REMARK    2  A    between atoms: C_5  and  O_17
REMARK    3  A    between atoms: C_20  and  C_24
REMARK    4  A    between atoms: C_25  and  O_35
REMARK                            x       y       z     vdW  Elec       q    Type
REMARK                         _______ _______ _______ _____ _____    ______ ____
ROOT
ATOM      1  O   UNL     1     -69.081 -50.957 -51.832  0.00  0.00    +0.000 OA
ATOM      2  O   UNL     1     -71.723 -51.655 -54.328  0.00  0.00    +0.000 OA
ATOM      3  C   UNL     1     -66.099 -49.342 -53.860  0.00  0.00    +0.000 C 
ATOM      4  C   UNL     1     -67.490 -49.453 -53.238  0.00  0.00    +0.000 C 
ATOM      5  C   UNL     1     -64.885 -49.869 -53.114  0.00  0.00    +0.000 C 
ATOM      6  C   UNL     1     -67.786 -50.686 -52.288  0.00  0.00    +0.000 C 
ATOM      7  C   UNL     1     -65.332 -50.744 -52.047  0.00  0.00    +0.000 C 
ATOM      8  C   UNL     1     -66.677 -51.200 -51.587  0.00  0.00    +0.000 C 
ATOM      9  C   UNL     1     -68.510 -49.653 -54.280  0.00  0.00    +0.000 C 
ATOM     10  C   UNL     1     -67.807 -48.154 -52.445  0.00  0.00    +0.000 C 
ATOM     11  C   UNL     1     -63.925 -50.589 -54.068  0.00  0.00    +0.000 C 
ATOM     12  C   UNL     1     -69.802 -50.405 -54.521  0.00  0.00    +0.000 C 
ATOM     13  C   UNL     1     -69.910 -51.947 -52.528  0.00  0.00    +0.000 C 
ATOM     14  C   UNL     1     -70.637 -51.367 -53.841  0.00  0.00    +0.000 C 
ATOM     15  C   UNL     1     -70.979 -52.383 -51.474  0.00  0.00    +0.000 C 
ATOM     16  C   UNL     1     -69.048 -53.202 -52.930  0.00  0.00    +0.000 C 
ENDROOT
BRANCH   5  17
ATOM     17  O   UNL     1     -64.157 -48.795 -52.574  0.00  0.00    +0.000 OA
ATOM     18  H   UNL     1     -63.242 -49.109 -52.692  0.00  0.00    +0.000 HD
ENDBRANCH   5  17
BRANCH   3  19
ATOM     19  C   UNL     1     -65.912 -48.513 -55.024  0.00  0.00    +0.000 C 
ATOM     20  C   UNL     1     -65.723 -47.640 -56.266  0.00  0.00    +0.000 C 
BRANCH  20  24
ATOM     21  C   UNL     1     -63.218 -45.999 -58.318  0.00  0.00    +0.000 C 
ATOM     22  C   UNL     1     -64.496 -45.690 -57.498  0.00  0.00    +0.000 C 
ATOM     23  C   UNL     1     -63.165 -46.251 -59.802  0.00  0.00    +0.000 C 
ATOM     24  C   UNL     1     -65.542 -46.829 -57.436  0.00  0.00    +0.000 C 
ATOM     25  C   UNL     1     -61.734 -46.480 -60.291  0.00  0.00    +0.000 C 
ATOM     26  C   UNL     1     -61.872 -46.038 -57.851  0.00  0.00    +0.000 C 
ATOM     27  C   UNL     1     -60.999 -46.315 -59.043  0.00  0.00    +0.000 C 
ATOM     28  C   UNL     1     -64.356 -46.756 -60.363  0.00  0.00    +0.000 C 
ATOM     29  C   UNL     1     -66.320 -47.166 -58.630  0.00  0.00    +0.000 C 
ATOM     30  C   UNL     1     -64.052 -45.326 -56.029  0.00  0.00    +0.000 C 
ATOM     31  C   UNL     1     -65.156 -44.394 -58.080  0.00  0.00    +0.000 C 
ATOM     32  C   UNL     1     -65.689 -47.114 -59.761  0.00  0.00    +0.000 C 
ATOM     33  C   UNL     1     -61.357 -45.535 -61.420  0.00  0.00    +0.000 C 
ATOM     34  C   UNL     1     -67.603 -47.955 -58.602  0.00  0.00    +0.000 C 
BRANCH  25  35
ATOM     35  O   UNL     1     -61.584 -47.791 -60.779  0.00  0.00    +0.000 OA
ATOM     36  H   UNL     1     -61.605 -48.296 -59.948  0.00  0.00    +0.000 HD
ENDBRANCH  25  35
ENDBRANCH  20  24
ENDBRANCH   3  19
TORSDOF 4
ENDMDL
MODEL 3
REMARK VINA RESULT:      -6.5     21.128     27.399
REMARK  Name = 44423609_SipholenoneA.pdbqt.pdb
REMARK  4 active torsions:
REMARK  status: ('A' for Active; 'I' for Inactive)
REMARK    1  A    between atoms: C_3  and  C_19
REMARK    2  A    between atoms: C_5  and  O_17
REMARK    3  A    between atoms: C_20  and  C_24
REMARK    4  A    between atoms: C_25  and  O_35
REMARK                            x       y       z     vdW  Elec       q    Type
REMARK                         _______ _______ _______ _____ _____    ______ ____
ROOT
ATOM      1  O   UNL     1     -67.075 -62.588 -72.632  0.00  0.00    +0.000 OA
ATOM      2  O   UNL     1     -64.068 -61.180 -70.999  0.00  0.00    +0.000 OA
ATOM      3  C   UNL     1     -67.501 -60.569 -76.002  0.00  0.00    +0.000 C 
ATOM      4  C   UNL     1     -66.864 -61.530 -75.001  0.00  0.00    +0.000 C 
ATOM      5  C   UNL     1     -69.013 -60.511 -76.148  0.00  0.00    +0.000 C 
ATOM      6  C   UNL     1     -67.667 -61.869 -73.677  0.00  0.00    +0.000 C 
ATOM      7  C   UNL     1     -69.621 -61.158 -75.002  0.00  0.00    +0.000 C 
ATOM      8  C   UNL     1     -69.071 -61.817 -73.781  0.00  0.00    +0.000 C 
ATOM      9  C   UNL     1     -65.631 -60.953 -74.439  0.00  0.00    +0.000 C 
ATOM     10  C   UNL     1     -66.531 -62.873 -75.711  0.00  0.00    +0.000 C 
ATOM     11  C   UNL     1     -69.493 -59.063 -76.298  0.00  0.00    +0.000 C 
ATOM     12  C   UNL     1     -64.861 -60.886 -73.138  0.00  0.00    +0.000 C 
ATOM     13  C   UNL     1     -66.493 -61.875 -71.490  0.00  0.00    +0.000 C 
ATOM     14  C   UNL     1     -65.011 -61.317 -71.768  0.00  0.00    +0.000 C 
ATOM     15  C   UNL     1     -66.460 -62.931 -70.337  0.00  0.00    +0.000 C 
ATOM     16  C   UNL     1     -67.420 -60.679 -71.058  0.00  0.00    +0.000 C 
ENDROOT
BRANCH   5  17
ATOM     17  O   UNL     1     -69.400 -61.169 -77.328  0.00  0.00    +0.000 OA
ATOM     18  H   UNL     1     -69.275 -62.101 -77.073  0.00  0.00    +0.000 HD
ENDBRANCH   5  17
BRANCH   3  19
ATOM     19  C   UNL     1     -66.668 -59.915 -76.978  0.00  0.00    +0.000 C 
ATOM     20  C   UNL     1     -65.780 -59.211 -78.008  0.00  0.00    +0.000 C 
BRANCH  20  24
ATOM     21  C   UNL     1     -65.330 -56.081 -79.790  0.00  0.00    +0.000 C 
ATOM     22  C   UNL     1     -65.542 -57.594 -80.046  0.00  0.00    +0.000 C 
ATOM     23  C   UNL     1     -64.000 -55.372 -79.760  0.00  0.00    +0.000 C 
ATOM     24  C   UNL     1     -64.955 -58.543 -78.973  0.00  0.00    +0.000 C 
ATOM     25  C   UNL     1     -64.160 -53.869 -79.525  0.00  0.00    +0.000 C 
ATOM     26  C   UNL     1     -66.327 -55.081 -79.604  0.00  0.00    +0.000 C 
ATOM     27  C   UNL     1     -65.613 -53.767 -79.458  0.00  0.00    +0.000 C 
ATOM     28  C   UNL     1     -62.900 -56.185 -79.414  0.00  0.00    +0.000 C 
ATOM     29  C   UNL     1     -63.504 -58.706 -78.864  0.00  0.00    +0.000 C 
ATOM     30  C   UNL     1     -67.094 -57.852 -80.159  0.00  0.00    +0.000 C 
ATOM     31  C   UNL     1     -64.945 -57.947 -81.450  0.00  0.00    +0.000 C 
ATOM     32  C   UNL     1     -62.789 -57.641 -79.048  0.00  0.00    +0.000 C 
ATOM     33  C   UNL     1     -63.479 -53.046 -80.604  0.00  0.00    +0.000 C 
ATOM     34  C   UNL     1     -62.839 -59.858 -78.155  0.00  0.00    +0.000 C 
BRANCH  25  35
ATOM     35  O   UNL     1     -63.585 -53.500 -78.295  0.00  0.00    +0.000 OA
ATOM     36  H   UNL     1     -64.237 -52.850 -77.979  0.00  0.00    +0.000 HD
ENDBRANCH  25  35
ENDBRANCH  20  24
ENDBRANCH   3  19
TORSDOF 4
ENDMDL
MODEL 4
REMARK VINA RESULT:      -6.5     14.720     20.729
REMARK  Name = 44423609_SipholenoneA.pdbqt.pdb
REMARK  4 active torsions:
REMARK  status: ('A' for Active; 'I' for Inactive)
REMARK    1  A    between atoms: C_3  and  C_19
REMARK    2  A    between atoms: C_5  and  O_17
REMARK    3  A    between atoms: C_20  and  C_24
REMARK    4  A    between atoms: C_25  and  O_35
REMARK                            x       y       z     vdW  Elec       q    Type
REMARK                         _______ _______ _______ _____ _____    ______ ____
ROOT
ATOM      1  O   UNL     1     -69.347 -57.999 -38.037  0.00  0.00    +0.000 OA
ATOM      2  O   UNL     1     -70.779 -54.630 -38.577  0.00  0.00    +0.000 OA
ATOM      3  C   UNL     1     -69.248 -58.500 -34.119  0.00  0.00    +0.000 C 
ATOM      4  C   UNL     1     -69.861 -58.330 -35.508  0.00  0.00    +0.000 C 
ATOM      5  C   UNL     1     -67.989 -59.330 -33.936  0.00  0.00    +0.000 C 
ATOM      6  C   UNL     1     -68.887 -58.333 -36.758  0.00  0.00    +0.000 C 
ATOM      7  C   UNL     1     -67.367 -59.531 -35.231  0.00  0.00    +0.000 C 
ATOM      8  C   UNL     1     -67.708 -59.090 -36.615  0.00  0.00    +0.000 C 
ATOM      9  C   UNL     1     -70.484 -57.003 -35.642  0.00  0.00    +0.000 C 
ATOM     10  C   UNL     1     -70.934 -59.432 -35.739  0.00  0.00    +0.000 C 
ATOM     11  C   UNL     1     -67.029 -58.660 -32.947  0.00  0.00    +0.000 C 
ATOM     12  C   UNL     1     -70.684 -55.905 -36.665  0.00  0.00    +0.000 C 
ATOM     13  C   UNL     1     -69.170 -56.634 -38.546  0.00  0.00    +0.000 C 
ATOM     14  C   UNL     1     -70.287 -55.603 -38.021  0.00  0.00    +0.000 C 
ATOM     15  C   UNL     1     -69.260 -56.774 -40.101  0.00  0.00    +0.000 C 
ATOM     16  C   UNL     1     -67.745 -56.085 -38.165  0.00  0.00    +0.000 C 
ENDROOT
BRANCH   5  17
ATOM     17  O   UNL     1     -68.320 -60.574 -33.370  0.00  0.00    +0.000 OA
ATOM     18  H   UNL     1     -67.488 -60.801 -32.917  0.00  0.00    +0.000 HD
ENDBRANCH   5  17
BRANCH   3  19
ATOM     19  C   UNL     1     -70.004 -58.092 -32.962  0.00  0.00    +0.000 C 
ATOM     20  C   UNL     1     -70.804 -57.646 -31.736  0.00  0.00    +0.000 C 
BRANCH  20  24
ATOM     21  C   UNL     1     -72.206 -58.795 -28.591  0.00  0.00    +0.000 C 
ATOM     22  C   UNL     1     -72.623 -58.118 -29.920  0.00  0.00    +0.000 C 
ATOM     23  C   UNL     1     -71.879 -58.080 -27.305  0.00  0.00    +0.000 C 
ATOM     24  C   UNL     1     -71.546 -57.224 -30.582  0.00  0.00    +0.000 C 
ATOM     25  C   UNL     1     -71.551 -59.059 -26.176  0.00  0.00    +0.000 C 
ATOM     26  C   UNL     1     -72.119 -60.189 -28.313  0.00  0.00    +0.000 C 
ATOM     27  C   UNL     1     -71.738 -60.329 -26.866  0.00  0.00    +0.000 C 
ATOM     28  C   UNL     1     -71.412 -56.758 -27.461  0.00  0.00    +0.000 C 
ATOM     29  C   UNL     1     -71.193 -55.940 -29.972  0.00  0.00    +0.000 C 
ATOM     30  C   UNL     1     -73.033 -59.254 -30.934  0.00  0.00    +0.000 C 
ATOM     31  C   UNL     1     -73.922 -57.281 -29.664  0.00  0.00    +0.000 C 
ATOM     32  C   UNL     1     -71.156 -55.909 -28.677  0.00  0.00    +0.000 C 
ATOM     33  C   UNL     1     -72.418 -58.829 -24.950  0.00  0.00    +0.000 C 
ATOM     34  C   UNL     1     -70.476 -54.833 -30.700  0.00  0.00    +0.000 C 
BRANCH  25  35
ATOM     35  O   UNL     1     -70.212 -58.912 -25.771  0.00  0.00    +0.000 OA
ATOM     36  H   UNL     1     -70.041 -57.993 -26.043  0.00  0.00    +0.000 HD
ENDBRANCH  25  35
ENDBRANCH  20  24
ENDBRANCH   3  19
TORSDOF 4
ENDMDL
MODEL 5
REMARK VINA RESULT:      -6.5     31.406     36.727
REMARK  Name = 44423609_SipholenoneA.pdbqt.pdb
REMARK  4 active torsions:
REMARK  status: ('A' for Active; 'I' for Inactive)
REMARK    1  A    between atoms: C_3  and  C_19
REMARK    2  A    between atoms: C_5  and  O_17
REMARK    3  A    between atoms: C_20  and  C_24
REMARK    4  A    between atoms: C_25  and  O_35
REMARK                            x       y       z     vdW  Elec       q    Type
REMARK                         _______ _______ _______ _____ _____    ______ ____
ROOT
ATOM      1  O   UNL     1     -61.265 -53.004 -18.258  0.00  0.00    +0.000 OA
ATOM      2  O   UNL     1     -59.796 -55.674 -20.358  0.00  0.00    +0.000 OA
ATOM      3  C   UNL     1     -63.642 -54.849 -15.697  0.00  0.00    +0.000 C 
ATOM      4  C   UNL     1     -62.331 -54.430 -16.360  0.00  0.00    +0.000 C 
ATOM      5  C   UNL     1     -64.766 -53.842 -15.525  0.00  0.00    +0.000 C 
ATOM      6  C   UNL     1     -62.386 -53.308 -17.478  0.00  0.00    +0.000 C 
ATOM      7  C   UNL     1     -64.510 -52.701 -16.383  0.00  0.00    +0.000 C 
ATOM      8  C   UNL     1     -63.423 -52.363 -17.348  0.00  0.00    +0.000 C 
ATOM      9  C   UNL     1     -61.751 -55.551 -17.119  0.00  0.00    +0.000 C 
ATOM     10  C   UNL     1     -61.324 -53.966 -15.270  0.00  0.00    +0.000 C 
ATOM     11  C   UNL     1     -66.126 -54.481 -15.829  0.00  0.00    +0.000 C 
ATOM     12  C   UNL     1     -60.992 -55.826 -18.399  0.00  0.00    +0.000 C 
ATOM     13  C   UNL     1     -61.112 -53.605 -19.588  0.00  0.00    +0.000 C 
ATOM     14  C   UNL     1     -60.519 -55.099 -19.554  0.00  0.00    +0.000 C 
ATOM     15  C   UNL     1     -60.127 -52.654 -20.344  0.00  0.00    +0.000 C 
ATOM     16  C   UNL     1     -62.492 -53.617 -20.347  0.00  0.00    +0.000 C 
ENDROOT
BRANCH   5  17
ATOM     17  O   UNL     1     -64.828 -53.424 -14.184  0.00  0.00    +0.000 OA
ATOM     18  H   UNL     1     -64.103 -52.773 -14.156  0.00  0.00    +0.000 HD
ENDBRANCH   5  17
BRANCH   3  19
ATOM     19  C   UNL     1     -63.710 -56.113 -15.010  0.00  0.00    +0.000 C 
ATOM     20  C   UNL     1     -63.794 -57.454 -14.276  0.00  0.00    +0.000 C 
BRANCH  20  24
ATOM     21  C   UNL     1     -64.361 -58.945 -11.016  0.00  0.00    +0.000 C 
ATOM     22  C   UNL     1     -63.309 -58.895 -12.152  0.00  0.00    +0.000 C 
ATOM     23  C   UNL     1     -65.413 -60.009 -10.837  0.00  0.00    +0.000 C 
ATOM     24  C   UNL     1     -63.875 -58.706 -13.580  0.00  0.00    +0.000 C 
ATOM     25  C   UNL     1     -66.256 -59.772  -9.583  0.00  0.00    +0.000 C 
ATOM     26  C   UNL     1     -64.492 -58.055  -9.911  0.00  0.00    +0.000 C 
ATOM     27  C   UNL     1     -65.620 -58.569  -9.061  0.00  0.00    +0.000 C 
ATOM     28  C   UNL     1     -65.799 -60.668 -12.022  0.00  0.00    +0.000 C 
ATOM     29  C   UNL     1     -64.603 -59.802 -14.223  0.00  0.00    +0.000 C 
ATOM     30  C   UNL     1     -62.314 -57.712 -11.838  0.00  0.00    +0.000 C 
ATOM     31  C   UNL     1     -62.451 -60.204 -12.090  0.00  0.00    +0.000 C 
ATOM     32  C   UNL     1     -65.374 -60.508 -13.458  0.00  0.00    +0.000 C 
ATOM     33  C   UNL     1     -66.263 -60.980  -8.663  0.00  0.00    +0.000 C 
ATOM     34  C   UNL     1     -64.852 -59.888 -15.707  0.00  0.00    +0.000 C 
BRANCH  25  35
ATOM     35  O   UNL     1     -67.593 -59.508  -9.932  0.00  0.00    +0.000 OA
ATOM     36  H   UNL     1     -67.502 -58.635 -10.350  0.00  0.00    +0.000 HD
ENDBRANCH  25  35
ENDBRANCH  20  24
ENDBRANCH   3  19
TORSDOF 4
ENDMDL
MODEL 6
REMARK VINA RESULT:      -6.5      6.528     14.560
REMARK  Name = 44423609_SipholenoneA.pdbqt.pdb
REMARK  4 active torsions:
REMARK  status: ('A' for Active; 'I' for Inactive)
REMARK    1  A    between atoms: C_3  and  C_19
REMARK    2  A    between atoms: C_5  and  O_17
REMARK    3  A    between atoms: C_20  and  C_24
REMARK    4  A    between atoms: C_25  and  O_35
REMARK                            x       y       z     vdW  Elec       q    Type
REMARK                         _______ _______ _______ _____ _____    ______ ____
ROOT
ATOM      1  O   UNL     1     -58.534 -58.015 -56.242  0.00  0.00    +0.000 OA
ATOM      2  O   UNL     1     -55.167 -58.453 -54.771  0.00  0.00    +0.000 OA
ATOM      3  C   UNL     1     -57.925 -56.868 -59.975  0.00  0.00    +0.000 C 
ATOM      4  C   UNL     1     -57.923 -57.798 -58.763  0.00  0.00    +0.000 C 
ATOM      5  C   UNL     1     -59.095 -55.929 -60.213  0.00  0.00    +0.000 C 
ATOM      6  C   UNL     1     -58.652 -57.306 -57.444  0.00  0.00    +0.000 C 
ATOM      7  C   UNL     1     -59.873 -55.828 -58.993  0.00  0.00    +0.000 C 
ATOM      8  C   UNL     1     -59.737 -56.429 -57.634  0.00  0.00    +0.000 C 
ATOM      9  C   UNL     1     -56.552 -57.999 -58.265  0.00  0.00    +0.000 C 
ATOM     10  C   UNL     1     -58.536 -59.170 -59.161  0.00  0.00    +0.000 C 
ATOM     11  C   UNL     1     -58.607 -54.555 -60.685  0.00  0.00    +0.000 C 
ATOM     12  C   UNL     1     -55.793 -58.163 -56.965  0.00  0.00    +0.000 C 
ATOM     13  C   UNL     1     -57.545 -57.599 -55.241  0.00  0.00    +0.000 C 
ATOM     14  C   UNL     1     -56.059 -58.132 -55.546  0.00  0.00    +0.000 C 
ATOM     15  C   UNL     1     -58.064 -58.202 -53.895  0.00  0.00    +0.000 C 
ATOM     16  C   UNL     1     -57.513 -56.030 -55.118  0.00  0.00    +0.000 C 
ENDROOT
BRANCH   5  17
ATOM     17  O   UNL     1     -59.900 -56.428 -61.251  0.00  0.00    +0.000 OA
ATOM     18  H   UNL     1     -60.064 -55.619 -61.768  0.00  0.00    +0.000 HD
ENDBRANCH   5  17
BRANCH   3  19
ATOM     19  C   UNL     1     -56.952 -57.069 -61.017  0.00  0.00    +0.000 C 
ATOM     20  C   UNL     1     -55.915 -57.270 -62.126  0.00  0.00    +0.000 C 
BRANCH  20  24
ATOM     21  C   UNL     1     -55.305 -58.995 -65.260  0.00  0.00    +0.000 C 
ATOM     22  C   UNL     1     -54.708 -58.827 -63.841  0.00  0.00    +0.000 C 
ATOM     23  C   UNL     1     -54.889 -58.223 -66.486  0.00  0.00    +0.000 C 
ATOM     24  C   UNL     1     -54.950 -57.452 -63.172  0.00  0.00    +0.000 C 
ATOM     25  C   UNL     1     -55.655 -58.674 -67.731  0.00  0.00    +0.000 C 
ATOM     26  C   UNL     1     -56.289 -59.933 -65.686  0.00  0.00    +0.000 C 
ATOM     27  C   UNL     1     -56.478 -59.735 -67.164  0.00  0.00    +0.000 C 
ATOM     28  C   UNL     1     -54.337 -56.951 -66.229  0.00  0.00    +0.000 C 
ATOM     29  C   UNL     1     -54.247 -56.268 -63.670  0.00  0.00    +0.000 C 
ATOM     30  C   UNL     1     -55.319 -59.955 -62.923  0.00  0.00    +0.000 C 
ATOM     31  C   UNL     1     -53.170 -59.119 -63.913  0.00  0.00    +0.000 C 
ATOM     32  C   UNL     1     -54.091 -56.190 -64.954  0.00  0.00    +0.000 C 
ATOM     33  C   UNL     1     -54.722 -59.080 -68.860  0.00  0.00    +0.000 C 
ATOM     34  C   UNL     1     -54.093 -54.991 -62.886  0.00  0.00    +0.000 C 
BRANCH  25  35
ATOM     35  O   UNL     1     -56.464 -57.631 -68.216  0.00  0.00    +0.000 OA
ATOM     36  H   UNL     1     -55.838 -56.887 -68.183  0.00  0.00    +0.000 HD
ENDBRANCH  25  35
ENDBRANCH  20  24
ENDBRANCH   3  19
TORSDOF 4
ENDMDL
MODEL 7
REMARK VINA RESULT:      -6.2     19.501     26.382
REMARK  Name = 44423609_SipholenoneA.pdbqt.pdb
REMARK  4 active torsions:
REMARK  status: ('A' for Active; 'I' for Inactive)
REMARK    1  A    between atoms: C_3  and  C_19
REMARK    2  A    between atoms: C_5  and  O_17
REMARK    3  A    between atoms: C_20  and  C_24
REMARK    4  A    between atoms: C_25  and  O_35
REMARK                            x       y       z     vdW  Elec       q    Type
REMARK                         _______ _______ _______ _____ _____    ______ ____
ROOT
ATOM      1  O   UNL     1     -70.413 -55.834 -32.463  0.00  0.00    +0.000 OA
ATOM      2  O   UNL     1     -69.666 -59.419 -33.000  0.00  0.00    +0.000 OA
ATOM      3  C   UNL     1     -72.597 -55.681 -29.174  0.00  0.00    +0.000 C 
ATOM      4  C   UNL     1     -71.359 -55.907 -30.040  0.00  0.00    +0.000 C 
ATOM      5  C   UNL     1     -73.532 -54.520 -29.467  0.00  0.00    +0.000 C 
ATOM      6  C   UNL     1     -71.432 -55.490 -31.568  0.00  0.00    +0.000 C 
ATOM      7  C   UNL     1     -73.258 -54.021 -30.801  0.00  0.00    +0.000 C 
ATOM      8  C   UNL     1     -72.297 -54.420 -31.871  0.00  0.00    +0.000 C 
ATOM      9  C   UNL     1     -71.063 -57.345 -30.158  0.00  0.00    +0.000 C 
ATOM     10  C   UNL     1     -70.142 -55.177 -29.406  0.00  0.00    +0.000 C 
ATOM     11  C   UNL     1     -74.997 -54.945 -29.315  0.00  0.00    +0.000 C 
ATOM     12  C   UNL     1     -70.555 -58.354 -31.165  0.00  0.00    +0.000 C 
ATOM     13  C   UNL     1     -70.552 -57.025 -33.309  0.00  0.00    +0.000 C 
ATOM     14  C   UNL     1     -70.171 -58.395 -32.557  0.00  0.00    +0.000 C 
ATOM     15  C   UNL     1     -69.574 -56.781 -34.504  0.00  0.00    +0.000 C 
ATOM     16  C   UNL     1     -72.020 -57.136 -33.866  0.00  0.00    +0.000 C 
ENDROOT
BRANCH   5  17
ATOM     17  O   UNL     1     -73.328 -53.497 -28.526  0.00  0.00    +0.000 OA
ATOM     18  H   UNL     1     -72.922 -52.808 -29.081  0.00  0.00    +0.000 HD
ENDBRANCH   5  17
BRANCH   3  19
ATOM     19  C   UNL     1     -72.731 -56.405 -27.936  0.00  0.00    +0.000 C 
ATOM     20  C   UNL     1     -72.884 -57.169 -26.618  0.00  0.00    +0.000 C 
BRANCH  20  24
ATOM     21  C   UNL     1     -75.236 -57.958 -23.968  0.00  0.00    +0.000 C 
ATOM     22  C   UNL     1     -73.848 -57.308 -24.194  0.00  0.00    +0.000 C 
ATOM     23  C   UNL     1     -75.481 -59.390 -23.570  0.00  0.00    +0.000 C 
ATOM     24  C   UNL     1     -73.027 -57.876 -25.378  0.00  0.00    +0.000 C 
ATOM     25  C   UNL     1     -76.972 -59.685 -23.390  0.00  0.00    +0.000 C 
ATOM     26  C   UNL     1     -76.512 -57.328 -24.027  0.00  0.00    +0.000 C 
ATOM     27  C   UNL     1     -77.535 -58.370 -23.669  0.00  0.00    +0.000 C 
ATOM     28  C   UNL     1     -74.465 -60.294 -23.942  0.00  0.00    +0.000 C 
ATOM     29  C   UNL     1     -72.448 -59.217 -25.282  0.00  0.00    +0.000 C 
ATOM     30  C   UNL     1     -74.069 -55.763 -24.423  0.00  0.00    +0.000 C 
ATOM     31  C   UNL     1     -73.022 -57.431 -22.869  0.00  0.00    +0.000 C 
ATOM     32  C   UNL     1     -73.167 -60.114 -24.683  0.00  0.00    +0.000 C 
ATOM     33  C   UNL     1     -77.278 -60.269 -22.022  0.00  0.00    +0.000 C 
ATOM     34  C   UNL     1     -71.335 -59.716 -26.167  0.00  0.00    +0.000 C 
BRANCH  25  35
ATOM     35  O   UNL     1     -77.408 -60.619 -24.348  0.00  0.00    +0.000 OA
ATOM     36  H   UNL     1     -78.355 -60.399 -24.396  0.00  0.00    +0.000 HD
ENDBRANCH  25  35
ENDBRANCH  20  24
ENDBRANCH   3  19
TORSDOF 4
ENDMDL
MODEL 8
REMARK VINA RESULT:      -6.1     42.277     45.429
REMARK  Name = 44423609_SipholenoneA.pdbqt.pdb
REMARK  4 active torsions:
REMARK  status: ('A' for Active; 'I' for Inactive)
REMARK    1  A    between atoms: C_3  and  C_19
REMARK    2  A    between atoms: C_5  and  O_17
REMARK    3  A    between atoms: C_20  and  C_24
REMARK    4  A    between atoms: C_25  and  O_35
REMARK                            x       y       z     vdW  Elec       q    Type
REMARK                         _______ _______ _______ _____ _____    ______ ____
ROOT
ATOM      1  O   UNL     1     -51.338 -72.601 -91.916  0.00  0.00    +0.000 OA
ATOM      2  O   UNL     1     -52.050 -70.762 -88.785  0.00  0.00    +0.000 OA
ATOM      3  C   UNL     1     -53.782 -71.082 -94.624  0.00  0.00    +0.000 C 
ATOM      4  C   UNL     1     -52.620 -71.124 -93.633  0.00  0.00    +0.000 C 
ATOM      5  C   UNL     1     -54.095 -72.294 -95.485  0.00  0.00    +0.000 C 
ATOM      6  C   UNL     1     -52.260 -72.517 -92.966  0.00  0.00    +0.000 C 
ATOM      7  C   UNL     1     -53.422 -73.452 -94.929  0.00  0.00    +0.000 C 
ATOM      8  C   UNL     1     -52.545 -73.659 -93.739  0.00  0.00    +0.000 C 
ATOM      9  C   UNL     1     -52.925 -70.315 -92.441  0.00  0.00    +0.000 C 
ATOM     10  C   UNL     1     -51.335 -70.578 -94.316  0.00  0.00    +0.000 C 
ATOM     11  C   UNL     1     -55.608 -72.517 -95.586  0.00  0.00    +0.000 C 
ATOM     12  C   UNL     1     -52.716 -70.319 -90.941  0.00  0.00    +0.000 C 
ATOM     13  C   UNL     1     -51.810 -72.636 -90.528  0.00  0.00    +0.000 C 
ATOM     14  C   UNL     1     -52.155 -71.184 -89.929  0.00  0.00    +0.000 C 
ATOM     15  C   UNL     1     -50.634 -73.280 -89.723  0.00  0.00    +0.000 C 
ATOM     16  C   UNL     1     -53.079 -73.559 -90.401  0.00  0.00    +0.000 C 
ENDROOT
BRANCH   5  17
ATOM     17  O   UNL     1     -53.650 -72.070 -96.799  0.00  0.00    +0.000 OA
ATOM     18  H   UNL     1     -53.904 -72.907 -97.229  0.00  0.00    +0.000 HD
ENDBRANCH   5  17
BRANCH   3  19
ATOM     19  C   UNL     1     -54.406 -69.818 -94.923  0.00  0.00    +0.000 C 
ATOM     20  C   UNL     1     -55.070 -68.473 -95.228  0.00  0.00    +0.000 C 
BRANCH  20  24
ATOM     21  C   UNL     1     -55.412 -65.057 -94.051  0.00  0.00    +0.000 C 
ATOM     22  C   UNL     1     -56.263 -66.306 -94.390  0.00  0.00    +0.000 C 
ATOM     23  C   UNL     1     -55.139 -63.901 -94.979  0.00  0.00    +0.000 C 
ATOM     24  C   UNL     1     -55.701 -67.215 -95.509  0.00  0.00    +0.000 C 
ATOM     25  C   UNL     1     -54.297 -62.815 -94.305  0.00  0.00    +0.000 C 
ATOM     26  C   UNL     1     -54.794 -64.735 -92.809  0.00  0.00    +0.000 C 
ATOM     27  C   UNL     1     -54.143 -63.390 -92.974  0.00  0.00    +0.000 C 
ATOM     28  C   UNL     1     -55.199 -64.213 -96.352  0.00  0.00    +0.000 C 
ATOM     29  C   UNL     1     -55.720 -66.754 -96.898  0.00  0.00    +0.000 C 
ATOM     30  C   UNL     1     -56.418 -67.158 -93.071  0.00  0.00    +0.000 C 
ATOM     31  C   UNL     1     -57.708 -65.832 -94.767  0.00  0.00    +0.000 C 
ATOM     32  C   UNL     1     -55.473 -65.496 -97.091  0.00  0.00    +0.000 C 
ATOM     33  C   UNL     1     -54.963 -61.452 -94.372  0.00  0.00    +0.000 C 
ATOM     34  C   UNL     1     -55.575 -67.666 -98.089  0.00  0.00    +0.000 C 
BRANCH  25  35
ATOM     35  O   UNL     1     -53.046 -62.699 -94.937  0.00  0.00    +0.000 OA
ATOM     36  H   UNL     1     -53.250 -63.075 -95.811  0.00  0.00    +0.000 HD
ENDBRANCH  25  35
ENDBRANCH  20  24
ENDBRANCH   3  19
TORSDOF 4
ENDMDL
MODEL 9
REMARK VINA RESULT:      -6.1     14.135     20.278
REMARK  Name = 44423609_SipholenoneA.pdbqt.pdb
REMARK  4 active torsions:
REMARK  status: ('A' for Active; 'I' for Inactive)
REMARK    1  A    between atoms: C_3  and  C_19
REMARK    2  A    between atoms: C_5  and  O_17
REMARK    3  A    between atoms: C_20  and  C_24
REMARK    4  A    between atoms: C_25  and  O_35
REMARK                            x       y       z     vdW  Elec       q    Type
REMARK                         _______ _______ _______ _____ _____    ______ ____
ROOT
ATOM      1  O   UNL     1     -63.102 -44.613 -59.255  0.00  0.00    +0.000 OA
ATOM      2  O   UNL     1     -62.228 -47.753 -61.006  0.00  0.00    +0.000 OA
ATOM      3  C   UNL     1     -60.038 -42.185 -59.826  0.00  0.00    +0.000 C 
ATOM      4  C   UNL     1     -61.262 -43.026 -60.185  0.00  0.00    +0.000 C 
ATOM      5  C   UNL     1     -60.003 -41.405 -58.523  0.00  0.00    +0.000 C 
ATOM      6  C   UNL     1     -62.087 -43.683 -59.002  0.00  0.00    +0.000 C 
ATOM      7  C   UNL     1     -61.044 -41.907 -57.647  0.00  0.00    +0.000 C 
ATOM      8  C   UNL     1     -62.068 -42.985 -57.779  0.00  0.00    +0.000 C 
ATOM      9  C   UNL     1     -60.865 -44.222 -60.946  0.00  0.00    +0.000 C 
ATOM     10  C   UNL     1     -62.245 -42.173 -61.035  0.00  0.00    +0.000 C 
ATOM     11  C   UNL     1     -58.621 -41.498 -57.866  0.00  0.00    +0.000 C 
ATOM     12  C   UNL     1     -61.229 -45.684 -61.099  0.00  0.00    +0.000 C 
ATOM     13  C   UNL     1     -62.817 -46.049 -59.174  0.00  0.00    +0.000 C 
ATOM     14  C   UNL     1     -62.127 -46.643 -60.500  0.00  0.00    +0.000 C 
ATOM     15  C   UNL     1     -64.212 -46.721 -58.951  0.00  0.00    +0.000 C 
ATOM     16  C   UNL     1     -61.898 -46.358 -57.934  0.00  0.00    +0.000 C 
ENDROOT
BRANCH   5  17
ATOM     17  O   UNL     1     -60.215 -40.040 -58.781  0.00  0.00    +0.000 OA
ATOM     18  H   UNL     1     -60.634 -40.078 -59.660  0.00  0.00    +0.000 HD
ENDBRANCH   5  17
BRANCH   3  19
ATOM     19  C   UNL     1     -59.040 -41.929 -60.834  0.00  0.00    +0.000 C 
ATOM     20  C   UNL     1     -57.990 -41.657 -61.914  0.00  0.00    +0.000 C 
BRANCH  20  24
ATOM     21  C   UNL     1     -56.932 -42.642 -65.243  0.00  0.00    +0.000 C 
ATOM     22  C   UNL     1     -56.406 -42.550 -63.789  0.00  0.00    +0.000 C 
ATOM     23  C   UNL     1     -56.732 -41.603 -66.317  0.00  0.00    +0.000 C 
ATOM     24  C   UNL     1     -57.007 -41.412 -62.930  0.00  0.00    +0.000 C 
ATOM     25  C   UNL     1     -57.346 -42.036 -67.650  0.00  0.00    +0.000 C 
ATOM     26  C   UNL     1     -57.629 -43.725 -65.851  0.00  0.00    +0.000 C 
ATOM     27  C   UNL     1     -57.859 -43.352 -67.288  0.00  0.00    +0.000 C 
ATOM     28  C   UNL     1     -56.540 -40.288 -65.845  0.00  0.00    +0.000 C 
ATOM     29  C   UNL     1     -56.643 -40.021 -63.210  0.00  0.00    +0.000 C 
ATOM     30  C   UNL     1     -56.698 -43.930 -63.082  0.00  0.00    +0.000 C 
ATOM     31  C   UNL     1     -54.846 -42.413 -63.835  0.00  0.00    +0.000 C 
ATOM     32  C   UNL     1     -56.509 -39.702 -64.459  0.00  0.00    +0.000 C 
ATOM     33  C   UNL     1     -56.336 -41.999 -68.783  0.00  0.00    +0.000 C 
ATOM     34  C   UNL     1     -56.838 -38.889 -62.235  0.00  0.00    +0.000 C 
BRANCH  25  35
ATOM     35  O   UNL     1     -58.403 -41.178 -68.007  0.00  0.00    +0.000 OA
ATOM     36  H   UNL     1     -57.908 -40.432 -68.388  0.00  0.00    +0.000 HD
ENDBRANCH  25  35
ENDBRANCH  20  24
ENDBRANCH   3  19
TORSDOF 4
ENDMDL
