MODEL 1
REMARK VINA RESULT:      -5.1      0.000      0.000
REMARK  Name = 445154_Resveratrol.pdbqt.pdb
REMARK  5 active torsions:
REMARK  status: ('A' for Active; 'I' for Inactive)
REMARK    1  A    between atoms: C_1  and  C_11
REMARK    2  A    between atoms: C_4  and  O_7
REMARK    3  A    between atoms: C_5  and  O_9
REMARK    4  A    between atoms: C_12  and  C_13
REMARK    5  A    between atoms: C_18  and  O_19
REMARK                            x       y       z     vdW  Elec       q    Type
REMARK                         _______ _______ _______ _____ _____    ______ ____
ROOT
ATOM      1  C   UNL     1     -72.588 -58.547 -24.159  0.00  0.00    +0.000 A 
ATOM      2  C   UNL     1     -72.293 -57.988 -25.402  0.00  0.00    +0.000 A 
ATOM      3  C   UNL     1     -72.473 -59.923 -23.963  0.00  0.00    +0.000 A 
ATOM      4  C   UNL     1     -72.062 -60.733 -25.018  0.00  0.00    +0.000 A 
ATOM      5  C   UNL     1     -71.884 -58.815 -26.443  0.00  0.00    +0.000 A 
ATOM      6  C   UNL     1     -71.764 -60.189 -26.263  0.00  0.00    +0.000 A 
ENDROOT
BRANCH   4   7
ATOM      7  O   UNL     1     -71.940 -62.082 -24.855  0.00  0.00    +0.000 OA
ATOM      8  H   UNL     1     -71.645 -62.252 -23.943  0.00  0.00    +0.000 HD
ENDBRANCH   4   7
BRANCH   5   9
ATOM      9  O   UNL     1     -71.600 -58.246 -27.651  0.00  0.00    +0.000 OA
ATOM     10  H   UNL     1     -71.142 -58.910 -28.196  0.00  0.00    +0.000 HD
ENDBRANCH   5   9
BRANCH   1  11
ATOM     11  C   UNL     1     -73.009 -57.710 -23.083  0.00  0.00    +0.000 C 
ATOM     12  C   UNL     1     -73.364 -57.006 -22.177  0.00  0.00    +0.000 C 
BRANCH  12  13
ATOM     13  C   UNL     1     -73.785 -56.170 -21.101  0.00  0.00    +0.000 A 
ATOM     14  C   UNL     1     -72.837 -55.603 -20.250  0.00  0.00    +0.000 A 
ATOM     15  C   UNL     1     -75.143 -55.921 -20.903  0.00  0.00    +0.000 A 
ATOM     16  C   UNL     1     -73.244 -54.786 -19.200  0.00  0.00    +0.000 A 
ATOM     17  C   UNL     1     -75.555 -55.105 -19.853  0.00  0.00    +0.000 A 
ATOM     18  C   UNL     1     -74.602 -54.544 -19.009  0.00  0.00    +0.000 A 
BRANCH  18  19
ATOM     19  O   UNL     1     -75.030 -53.748 -17.987  0.00  0.00    +0.000 OA
ATOM     20  H   UNL     1     -74.268 -53.547 -17.417  0.00  0.00    +0.000 HD
ENDBRANCH  18  19
ENDBRANCH  12  13
ENDBRANCH   1  11
TORSDOF 5
ENDMDL
MODEL 2
REMARK VINA RESULT:      -5.1      0.026      2.007
REMARK  Name = 445154_Resveratrol.pdbqt.pdb
REMARK  5 active torsions:
REMARK  status: ('A' for Active; 'I' for Inactive)
REMARK    1  A    between atoms: C_1  and  C_11
REMARK    2  A    between atoms: C_4  and  O_7
REMARK    3  A    between atoms: C_5  and  O_9
REMARK    4  A    between atoms: C_12  and  C_13
REMARK    5  A    between atoms: C_18  and  O_19
REMARK                            x       y       z     vdW  Elec       q    Type
REMARK                         _______ _______ _______ _____ _____    ______ ____
ROOT
ATOM      1  C   UNL     1     -72.578 -58.539 -24.176  0.00  0.00    +0.000 A 
ATOM      2  C   UNL     1     -72.459 -59.915 -23.988  0.00  0.00    +0.000 A 
ATOM      3  C   UNL     1     -72.286 -57.971 -25.416  0.00  0.00    +0.000 A 
ATOM      4  C   UNL     1     -71.876 -58.791 -26.464  0.00  0.00    +0.000 A 
ATOM      5  C   UNL     1     -72.048 -60.716 -25.049  0.00  0.00    +0.000 A 
ATOM      6  C   UNL     1     -71.754 -60.166 -26.292  0.00  0.00    +0.000 A 
ENDROOT
BRANCH   4   7
ATOM      7  O   UNL     1     -71.585 -58.264 -27.689  0.00  0.00    +0.000 OA
ATOM      8  H   UNL     1     -71.908 -58.880 -28.370  0.00  0.00    +0.000 HD
ENDBRANCH   4   7
BRANCH   5   9
ATOM      9  O   UNL     1     -71.939 -62.062 -24.842  0.00  0.00    +0.000 OA
ATOM     10  H   UNL     1     -72.084 -62.233 -23.894  0.00  0.00    +0.000 HD
ENDBRANCH   5   9
BRANCH   1  11
ATOM     11  C   UNL     1     -72.998 -57.706 -23.097  0.00  0.00    +0.000 C 
ATOM     12  C   UNL     1     -73.352 -57.006 -22.187  0.00  0.00    +0.000 C 
BRANCH  12  13
ATOM     13  C   UNL     1     -73.772 -56.174 -21.107  0.00  0.00    +0.000 A 
ATOM     14  C   UNL     1     -72.822 -55.602 -20.261  0.00  0.00    +0.000 A 
ATOM     15  C   UNL     1     -75.130 -55.935 -20.900  0.00  0.00    +0.000 A 
ATOM     16  C   UNL     1     -73.229 -54.789 -19.207  0.00  0.00    +0.000 A 
ATOM     17  C   UNL     1     -75.541 -55.124 -19.846  0.00  0.00    +0.000 A 
ATOM     18  C   UNL     1     -74.587 -54.557 -19.007  0.00  0.00    +0.000 A 
BRANCH  18  19
ATOM     19  O   UNL     1     -75.014 -53.765 -17.982  0.00  0.00    +0.000 OA
ATOM     20  H   UNL     1     -75.039 -52.845 -18.297  0.00  0.00    +0.000 HD
ENDBRANCH  18  19
ENDBRANCH  12  13
ENDBRANCH   1  11
TORSDOF 5
ENDMDL
MODEL 3
REMARK VINA RESULT:      -5.1     11.584     16.342
REMARK  Name = 445154_Resveratrol.pdbqt.pdb
REMARK  5 active torsions:
REMARK  status: ('A' for Active; 'I' for Inactive)
REMARK    1  A    between atoms: C_1  and  C_11
REMARK    2  A    between atoms: C_4  and  O_7
REMARK    3  A    between atoms: C_5  and  O_9
REMARK    4  A    between atoms: C_12  and  C_13
REMARK    5  A    between atoms: C_18  and  O_19
REMARK                            x       y       z     vdW  Elec       q    Type
REMARK                         _______ _______ _______ _____ _____    ______ ____
ROOT
ATOM      1  C   UNL     1     -68.559 -57.056 -34.944  0.00  0.00    +0.000 A 
ATOM      2  C   UNL     1     -69.803 -56.679 -34.439  0.00  0.00    +0.000 A 
ATOM      3  C   UNL     1     -67.632 -57.696 -34.123  0.00  0.00    +0.000 A 
ATOM      4  C   UNL     1     -67.959 -57.956 -32.794  0.00  0.00    +0.000 A 
ATOM      5  C   UNL     1     -70.109 -56.947 -33.108  0.00  0.00    +0.000 A 
ATOM      6  C   UNL     1     -69.196 -57.585 -32.276  0.00  0.00    +0.000 A 
ENDROOT
BRANCH   4   7
ATOM      7  O   UNL     1     -67.072 -58.581 -31.967  0.00  0.00    +0.000 OA
ATOM      8  H   UNL     1     -67.536 -58.811 -31.143  0.00  0.00    +0.000 HD
ENDBRANCH   4   7
BRANCH   5   9
ATOM      9  O   UNL     1     -71.333 -56.569 -32.635  0.00  0.00    +0.000 OA
ATOM     10  H   UNL     1     -71.195 -55.879 -31.961  0.00  0.00    +0.000 HD
ENDBRANCH   5   9
BRANCH   1  11
ATOM     11  C   UNL     1     -68.232 -56.786 -36.306  0.00  0.00    +0.000 C 
ATOM     12  C   UNL     1     -67.956 -56.558 -37.453  0.00  0.00    +0.000 C 
BRANCH  12  13
ATOM     13  C   UNL     1     -67.629 -56.289 -38.814  0.00  0.00    +0.000 A 
ATOM     14  C   UNL     1     -67.294 -54.993 -39.205  0.00  0.00    +0.000 A 
ATOM     15  C   UNL     1     -67.645 -57.322 -39.752  0.00  0.00    +0.000 A 
ATOM     16  C   UNL     1     -66.973 -54.727 -40.533  0.00  0.00    +0.000 A 
ATOM     17  C   UNL     1     -67.325 -57.060 -41.081  0.00  0.00    +0.000 A 
ATOM     18  C   UNL     1     -66.992 -55.764 -41.462  0.00  0.00    +0.000 A 
BRANCH  18  19
ATOM     19  O   UNL     1     -66.682 -55.533 -42.770  0.00  0.00    +0.000 OA
ATOM     20  H   UNL     1     -66.787 -54.581 -42.945  0.00  0.00    +0.000 HD
ENDBRANCH  18  19
ENDBRANCH  12  13
ENDBRANCH   1  11
TORSDOF 5
ENDMDL
MODEL 4
REMARK VINA RESULT:      -5.1     11.950     15.612
REMARK  Name = 445154_Resveratrol.pdbqt.pdb
REMARK  5 active torsions:
REMARK  status: ('A' for Active; 'I' for Inactive)
REMARK    1  A    between atoms: C_1  and  C_11
REMARK    2  A    between atoms: C_4  and  O_7
REMARK    3  A    between atoms: C_5  and  O_9
REMARK    4  A    between atoms: C_12  and  C_13
REMARK    5  A    between atoms: C_18  and  O_19
REMARK                            x       y       z     vdW  Elec       q    Type
REMARK                         _______ _______ _______ _____ _____    ______ ____
ROOT
ATOM      1  C   UNL     1     -67.613 -56.146 -38.816  0.00  0.00    +0.000 A 
ATOM      2  C   UNL     1     -67.561 -57.160 -39.771  0.00  0.00    +0.000 A 
ATOM      3  C   UNL     1     -67.274 -54.838 -39.161  0.00  0.00    +0.000 A 
ATOM      4  C   UNL     1     -66.883 -54.555 -40.467  0.00  0.00    +0.000 A 
ATOM      5  C   UNL     1     -67.168 -56.856 -41.070  0.00  0.00    +0.000 A 
ATOM      6  C   UNL     1     -66.827 -55.556 -41.431  0.00  0.00    +0.000 A 
ENDROOT
BRANCH   4   7
ATOM      7  O   UNL     1     -66.546 -53.284 -40.834  0.00  0.00    +0.000 OA
ATOM      8  H   UNL     1     -65.755 -53.022 -40.330  0.00  0.00    +0.000 HD
ENDBRANCH   4   7
BRANCH   5   9
ATOM      9  O   UNL     1     -67.125 -57.865 -41.989  0.00  0.00    +0.000 OA
ATOM     10  H   UNL     1     -67.036 -58.706 -41.507  0.00  0.00    +0.000 HD
ENDBRANCH   5   9
BRANCH   1  11
ATOM     11  C   UNL     1     -68.014 -56.445 -37.480  0.00  0.00    +0.000 C 
ATOM     12  C   UNL     1     -68.350 -56.697 -36.355  0.00  0.00    +0.000 C 
BRANCH  12  13
ATOM     13  C   UNL     1     -68.750 -56.995 -35.019  0.00  0.00    +0.000 A 
ATOM     14  C   UNL     1     -67.867 -57.647 -34.158  0.00  0.00    +0.000 A 
ATOM     15  C   UNL     1     -70.023 -56.635 -34.577  0.00  0.00    +0.000 A 
ATOM     16  C   UNL     1     -68.255 -57.939 -32.854  0.00  0.00    +0.000 A 
ATOM     17  C   UNL     1     -70.415 -56.926 -33.273  0.00  0.00    +0.000 A 
ATOM     18  C   UNL     1     -69.528 -57.576 -32.421  0.00  0.00    +0.000 A 
BRANCH  18  19
ATOM     19  O   UNL     1     -69.934 -57.850 -31.148  0.00  0.00    +0.000 OA
ATOM     20  H   UNL     1     -70.603 -57.191 -30.893  0.00  0.00    +0.000 HD
ENDBRANCH  18  19
ENDBRANCH  12  13
ENDBRANCH   1  11
TORSDOF 5
ENDMDL
MODEL 5
REMARK VINA RESULT:      -5.1     11.540     16.369
REMARK  Name = 445154_Resveratrol.pdbqt.pdb
REMARK  5 active torsions:
REMARK  status: ('A' for Active; 'I' for Inactive)
REMARK    1  A    between atoms: C_1  and  C_11
REMARK    2  A    between atoms: C_4  and  O_7
REMARK    3  A    between atoms: C_5  and  O_9
REMARK    4  A    between atoms: C_12  and  C_13
REMARK    5  A    between atoms: C_18  and  O_19
REMARK                            x       y       z     vdW  Elec       q    Type
REMARK                         _______ _______ _______ _____ _____    ______ ____
ROOT
ATOM      1  C   UNL     1     -68.571 -57.076 -34.902  0.00  0.00    +0.000 A 
ATOM      2  C   UNL     1     -67.650 -57.709 -34.067  0.00  0.00    +0.000 A 
ATOM      3  C   UNL     1     -69.815 -56.687 -34.407  0.00  0.00    +0.000 A 
ATOM      4  C   UNL     1     -70.129 -56.934 -33.073  0.00  0.00    +0.000 A 
ATOM      5  C   UNL     1     -67.984 -57.947 -32.738  0.00  0.00    +0.000 A 
ATOM      6  C   UNL     1     -69.220 -57.564 -32.229  0.00  0.00    +0.000 A 
ENDROOT
BRANCH   4   7
ATOM      7  O   UNL     1     -71.339 -56.564 -32.561  0.00  0.00    +0.000 OA
ATOM      8  H   UNL     1     -71.476 -57.046 -31.727  0.00  0.00    +0.000 HD
ENDBRANCH   4   7
BRANCH   5   9
ATOM      9  O   UNL     1     -67.066 -58.568 -31.939  0.00  0.00    +0.000 OA
ATOM     10  H   UNL     1     -66.988 -58.053 -31.116  0.00  0.00    +0.000 HD
ENDBRANCH   5   9
BRANCH   1  11
ATOM     11  C   UNL     1     -68.241 -56.827 -36.267  0.00  0.00    +0.000 C 
ATOM     12  C   UNL     1     -67.964 -56.616 -37.417  0.00  0.00    +0.000 C 
BRANCH  12  13
ATOM     13  C   UNL     1     -67.634 -56.366 -38.781  0.00  0.00    +0.000 A 
ATOM     14  C   UNL     1     -67.630 -57.416 -39.699  0.00  0.00    +0.000 A 
ATOM     15  C   UNL     1     -67.316 -55.073 -39.194  0.00  0.00    +0.000 A 
ATOM     16  C   UNL     1     -67.309 -57.174 -41.032  0.00  0.00    +0.000 A 
ATOM     17  C   UNL     1     -66.994 -54.827 -40.526  0.00  0.00    +0.000 A 
ATOM     18  C   UNL     1     -66.993 -55.880 -41.435  0.00  0.00    +0.000 A 
BRANCH  18  19
ATOM     19  O   UNL     1     -66.674 -55.615 -42.735  0.00  0.00    +0.000 OA
ATOM     20  H   UNL     1     -66.150 -54.795 -42.759  0.00  0.00    +0.000 HD
ENDBRANCH  18  19
ENDBRANCH  12  13
ENDBRANCH   1  11
TORSDOF 5
ENDMDL
MODEL 6
REMARK VINA RESULT:      -4.9     12.322     16.269
REMARK  Name = 445154_Resveratrol.pdbqt.pdb
REMARK  5 active torsions:
REMARK  status: ('A' for Active; 'I' for Inactive)
REMARK    1  A    between atoms: C_1  and  C_11
REMARK    2  A    between atoms: C_4  and  O_7
REMARK    3  A    between atoms: C_5  and  O_9
REMARK    4  A    between atoms: C_12  and  C_13
REMARK    5  A    between atoms: C_18  and  O_19
REMARK                            x       y       z     vdW  Elec       q    Type
REMARK                         _______ _______ _______ _____ _____    ______ ____
ROOT
ATOM      1  C   UNL     1     -67.831 -57.949 -35.620  0.00  0.00    +0.000 A 
ATOM      2  C   UNL     1     -67.718 -59.321 -35.839  0.00  0.00    +0.000 A 
ATOM      3  C   UNL     1     -67.779 -57.438 -34.323  0.00  0.00    +0.000 A 
ATOM      4  C   UNL     1     -67.613 -58.310 -33.250  0.00  0.00    +0.000 A 
ATOM      5  C   UNL     1     -67.553 -60.175 -34.753  0.00  0.00    +0.000 A 
ATOM      6  C   UNL     1     -67.499 -59.681 -33.454  0.00  0.00    +0.000 A 
ENDROOT
BRANCH   4   7
ATOM      7  O   UNL     1     -67.559 -57.838 -31.971  0.00  0.00    +0.000 OA
ATOM      8  H   UNL     1     -67.663 -58.593 -31.364  0.00  0.00    +0.000 HD
ENDBRANCH   4   7
BRANCH   5   9
ATOM      9  O   UNL     1     -67.445 -61.515 -34.991  0.00  0.00    +0.000 OA
ATOM     10  H   UNL     1     -66.650 -61.660 -35.536  0.00  0.00    +0.000 HD
ENDBRANCH   5   9
BRANCH   1  11
ATOM     11  C   UNL     1     -68.001 -57.063 -36.725  0.00  0.00    +0.000 C 
ATOM     12  C   UNL     1     -68.144 -56.317 -37.656  0.00  0.00    +0.000 C 
BRANCH  12  13
ATOM     13  C   UNL     1     -68.315 -55.432 -38.760  0.00  0.00    +0.000 A 
ATOM     14  C   UNL     1     -67.198 -54.890 -39.396  0.00  0.00    +0.000 A 
ATOM     15  C   UNL     1     -69.598 -55.109 -39.202  0.00  0.00    +0.000 A 
ATOM     16  C   UNL     1     -67.362 -54.026 -40.475  0.00  0.00    +0.000 A 
ATOM     17  C   UNL     1     -69.766 -54.245 -40.280  0.00  0.00    +0.000 A 
ATOM     18  C   UNL     1     -68.647 -53.710 -40.908  0.00  0.00    +0.000 A 
BRANCH  18  19
ATOM     19  O   UNL     1     -68.837 -52.865 -41.963  0.00  0.00    +0.000 OA
ATOM     20  H   UNL     1     -68.802 -53.388 -42.783  0.00  0.00    +0.000 HD
ENDBRANCH  18  19
ENDBRANCH  12  13
ENDBRANCH   1  11
TORSDOF 5
ENDMDL
MODEL 7
REMARK VINA RESULT:      -4.7     49.648     54.086
REMARK  Name = 445154_Resveratrol.pdbqt.pdb
REMARK  5 active torsions:
REMARK  status: ('A' for Active; 'I' for Inactive)
REMARK    1  A    between atoms: C_1  and  C_11
REMARK    2  A    between atoms: C_4  and  O_7
REMARK    3  A    between atoms: C_5  and  O_9
REMARK    4  A    between atoms: C_12  and  C_13
REMARK    5  A    between atoms: C_18  and  O_19
REMARK                            x       y       z     vdW  Elec       q    Type
REMARK                         _______ _______ _______ _____ _____    ______ ____
ROOT
ATOM      1  C   UNL     1     -65.285 -60.641 -73.865  0.00  0.00    +0.000 A 
ATOM      2  C   UNL     1     -64.670 -61.402 -72.871  0.00  0.00    +0.000 A 
ATOM      3  C   UNL     1     -66.363 -59.814 -73.549  0.00  0.00    +0.000 A 
ATOM      4  C   UNL     1     -66.819 -59.755 -72.234  0.00  0.00    +0.000 A 
ATOM      5  C   UNL     1     -65.141 -61.329 -71.564  0.00  0.00    +0.000 A 
ATOM      6  C   UNL     1     -66.214 -60.508 -71.233  0.00  0.00    +0.000 A 
ENDROOT
BRANCH   4   7
ATOM      7  O   UNL     1     -67.871 -58.955 -71.896  0.00  0.00    +0.000 OA
ATOM      8  H   UNL     1     -67.533 -58.054 -71.750  0.00  0.00    +0.000 HD
ENDBRANCH   4   7
BRANCH   5   9
ATOM      9  O   UNL     1     -64.523 -62.082 -70.608  0.00  0.00    +0.000 OA
ATOM     10  H   UNL     1     -65.175 -62.713 -70.255  0.00  0.00    +0.000 HD
ENDBRANCH   5   9
BRANCH   1  11
ATOM     11  C   UNL     1     -64.813 -60.707 -75.208  0.00  0.00    +0.000 C 
ATOM     12  C   UNL     1     -64.414 -60.764 -76.340  0.00  0.00    +0.000 C 
BRANCH  12  13
ATOM     13  C   UNL     1     -63.942 -60.832 -77.684  0.00  0.00    +0.000 A 
ATOM     14  C   UNL     1     -64.844 -61.032 -78.729  0.00  0.00    +0.000 A 
ATOM     15  C   UNL     1     -62.579 -60.698 -77.951  0.00  0.00    +0.000 A 
ATOM     16  C   UNL     1     -64.386 -61.098 -80.041  0.00  0.00    +0.000 A 
ATOM     17  C   UNL     1     -62.117 -60.764 -79.262  0.00  0.00    +0.000 A 
ATOM     18  C   UNL     1     -63.024 -60.964 -80.297  0.00  0.00    +0.000 A 
BRANCH  18  19
ATOM     19  O   UNL     1     -62.547 -61.025 -81.574  0.00  0.00    +0.000 OA
ATOM     20  H   UNL     1     -63.215 -60.641 -82.168  0.00  0.00    +0.000 HD
ENDBRANCH  18  19
ENDBRANCH  12  13
ENDBRANCH   1  11
TORSDOF 5
ENDMDL
MODEL 8
REMARK VINA RESULT:      -4.7     37.730     39.217
REMARK  Name = 445154_Resveratrol.pdbqt.pdb
REMARK  5 active torsions:
REMARK  status: ('A' for Active; 'I' for Inactive)
REMARK    1  A    between atoms: C_1  and  C_11
REMARK    2  A    between atoms: C_4  and  O_7
REMARK    3  A    between atoms: C_5  and  O_9
REMARK    4  A    between atoms: C_12  and  C_13
REMARK    5  A    between atoms: C_18  and  O_19
REMARK                            x       y       z     vdW  Elec       q    Type
REMARK                         _______ _______ _______ _____ _____    ______ ____
ROOT
ATOM      1  C   UNL     1     -64.503 -46.708 -59.406  0.00  0.00    +0.000 A 
ATOM      2  C   UNL     1     -63.942 -46.140 -58.263  0.00  0.00    +0.000 A 
ATOM      3  C   UNL     1     -63.683 -47.174 -60.433  0.00  0.00    +0.000 A 
ATOM      4  C   UNL     1     -62.300 -47.070 -60.307  0.00  0.00    +0.000 A 
ATOM      5  C   UNL     1     -62.558 -46.044 -58.157  0.00  0.00    +0.000 A 
ATOM      6  C   UNL     1     -61.727 -46.506 -59.172  0.00  0.00    +0.000 A 
ENDROOT
BRANCH   4   7
ATOM      7  O   UNL     1     -61.474 -47.518 -61.295  0.00  0.00    +0.000 OA
ATOM      8  H   UNL     1     -61.769 -48.409 -61.557  0.00  0.00    +0.000 HD
ENDBRANCH   4   7
BRANCH   5   9
ATOM      9  O   UNL     1     -62.031 -45.485 -57.028  0.00  0.00    +0.000 OA
ATOM     10  H   UNL     1     -61.082 -45.329 -57.185  0.00  0.00    +0.000 HD
ENDBRANCH   5   9
BRANCH   1  11
ATOM     11  C   UNL     1     -65.920 -46.811 -59.528  0.00  0.00    +0.000 C 
ATOM     12  C   UNL     1     -67.114 -46.898 -59.631  0.00  0.00    +0.000 C 
BRANCH  12  13
ATOM     13  C   UNL     1     -68.531 -47.002 -59.754  0.00  0.00    +0.000 A 
ATOM     14  C   UNL     1     -69.283 -47.525 -58.702  0.00  0.00    +0.000 A 
ATOM     15  C   UNL     1     -69.161 -46.582 -60.924  0.00  0.00    +0.000 A 
ATOM     16  C   UNL     1     -70.666 -47.628 -58.818  0.00  0.00    +0.000 A 
ATOM     17  C   UNL     1     -70.544 -46.683 -61.045  0.00  0.00    +0.000 A 
ATOM     18  C   UNL     1     -71.286 -47.206 -59.991  0.00  0.00    +0.000 A 
BRANCH  18  19
ATOM     19  O   UNL     1     -72.640 -47.295 -60.133  0.00  0.00    +0.000 OA
ATOM     20  H   UNL     1     -73.013 -46.398 -60.069  0.00  0.00    +0.000 HD
ENDBRANCH  18  19
ENDBRANCH  12  13
ENDBRANCH   1  11
TORSDOF 5
ENDMDL
MODEL 9
REMARK VINA RESULT:      -4.6     54.513     57.890
REMARK  Name = 445154_Resveratrol.pdbqt.pdb
REMARK  5 active torsions:
REMARK  status: ('A' for Active; 'I' for Inactive)
REMARK    1  A    between atoms: C_1  and  C_11
REMARK    2  A    between atoms: C_4  and  O_7
REMARK    3  A    between atoms: C_5  and  O_9
REMARK    4  A    between atoms: C_12  and  C_13
REMARK    5  A    between atoms: C_18  and  O_19
REMARK                            x       y       z     vdW  Elec       q    Type
REMARK                         _______ _______ _______ _____ _____    ______ ____
ROOT
ATOM      1  C   UNL     1     -52.241 -63.373 -74.911  0.00  0.00    +0.000 A 
ATOM      2  C   UNL     1     -53.440 -63.161 -74.233  0.00  0.00    +0.000 A 
ATOM      3  C   UNL     1     -51.559 -64.581 -74.769  0.00  0.00    +0.000 A 
ATOM      4  C   UNL     1     -52.086 -65.573 -73.946  0.00  0.00    +0.000 A 
ATOM      5  C   UNL     1     -53.950 -64.164 -73.414  0.00  0.00    +0.000 A 
ATOM      6  C   UNL     1     -53.282 -65.375 -73.263  0.00  0.00    +0.000 A 
ENDROOT
BRANCH   4   7
ATOM      7  O   UNL     1     -51.441 -66.765 -73.788  0.00  0.00    +0.000 OA
ATOM      8  H   UNL     1     -51.572 -67.063 -72.871  0.00  0.00    +0.000 HD
ENDBRANCH   4   7
BRANCH   5   9
ATOM      9  O   UNL     1     -55.126 -63.933 -72.760  0.00  0.00    +0.000 OA
ATOM     10  H   UNL     1     -55.705 -64.703 -72.903  0.00  0.00    +0.000 HD
ENDBRANCH   5   9
BRANCH   1  11
ATOM     11  C   UNL     1     -51.708 -62.353 -75.753  0.00  0.00    +0.000 C 
ATOM     12  C   UNL     1     -51.258 -61.493 -76.461  0.00  0.00    +0.000 C 
BRANCH  12  13
ATOM     13  C   UNL     1     -50.724 -60.473 -77.302  0.00  0.00    +0.000 A 
ATOM     14  C   UNL     1     -51.490 -59.966 -78.352  0.00  0.00    +0.000 A 
ATOM     15  C   UNL     1     -49.438 -59.985 -77.073  0.00  0.00    +0.000 A 
ATOM     16  C   UNL     1     -50.971 -58.970 -79.174  0.00  0.00    +0.000 A 
ATOM     17  C   UNL     1     -48.915 -58.989 -77.894  0.00  0.00    +0.000 A 
ATOM     18  C   UNL     1     -49.686 -58.490 -78.939  0.00  0.00    +0.000 A 
BRANCH  18  19
ATOM     19  O   UNL     1     -49.152 -57.514 -79.729  0.00  0.00    +0.000 OA
ATOM     20  H   UNL     1     -48.288 -57.823 -80.054  0.00  0.00    +0.000 HD
ENDBRANCH  18  19
ENDBRANCH  12  13
ENDBRANCH   1  11
TORSDOF 5
ENDMDL
