MODEL 1
REMARK VINA RESULT:      -6.7      0.000      0.000
REMARK  Name = 448438_Violaxanthin.pdbqt.pdb
REMARK  16 active torsions:
REMARK  status: ('A' for Active; 'I' for Inactive)
REMARK    1  A    between atoms: C_1  and  C_5
REMARK    2  A    between atoms: C_2  and  C_27
REMARK    3  A    between atoms: C_3  and  C_5
REMARK    4  A    between atoms: C_3  and  C_7
REMARK    5  A    between atoms: C_6  and  C_10
REMARK    6  A    between atoms: C_8  and  C_10
REMARK    7  A    between atoms: C_8  and  C_12
REMARK    8  A    between atoms: C_11  and  C_14
REMARK    9  A    between atoms: C_19  and  O_23
REMARK   10  A    between atoms: C_25  and  C_27
REMARK   11  A    between atoms: C_25  and  C_29
REMARK   12  A    between atoms: C_28  and  C_32
REMARK   13  A    between atoms: C_30  and  C_32
REMARK   14  A    between atoms: C_30  and  C_34
REMARK   15  A    between atoms: C_33  and  C_36
REMARK   16  A    between atoms: C_41  and  O_45
REMARK                            x       y       z     vdW  Elec       q    Type
REMARK                         _______ _______ _______ _____ _____    ______ ____
ROOT
ATOM      1  C   UNL     1     -52.063 -46.846 -63.385  0.00  0.00    +0.000 C 
ATOM      2  C   UNL     1     -51.656 -47.852 -63.897  0.00  0.00    +0.000 C 
ENDROOT
BRANCH   2   3
ATOM      3  C   UNL     1     -51.133 -49.137 -64.550  0.00  0.00    +0.000 C 
BRANCH   3   4
ATOM      4  C   UNL     1     -50.688 -50.222 -65.100  0.00  0.00    +0.000 C 
ATOM      5  C   UNL     1     -49.450 -50.177 -65.944  0.00  0.00    +0.000 C 
BRANCH   4   7
ATOM      6  C   UNL     1     -52.019 -52.459 -64.843  0.00  0.00    +0.000 C 
ATOM      7  C   UNL     1     -51.407 -51.432 -64.961  0.00  0.00    +0.000 C 
BRANCH   6   8
ATOM      8  C   UNL     1     -52.798 -53.772 -64.690  0.00  0.00    +0.000 C 
BRANCH   8   9
ATOM      9  C   UNL     1     -53.456 -54.882 -64.564  0.00  0.00    +0.000 C 
ATOM     10  C   UNL     1     -54.372 -55.079 -63.396  0.00  0.00    +0.000 C 
BRANCH   9  12
ATOM     11  C   UNL     1     -53.365 -56.677 -66.470  0.00  0.00    +0.000 C 
ATOM     12  C   UNL     1     -53.402 -55.854 -65.594  0.00  0.00    +0.000 C 
BRANCH  11  14
ATOM     13  O   UNL     1     -52.096 -58.417 -67.477  0.00  0.00    +0.000 OA
ATOM     14  C   UNL     1     -53.343 -57.669 -67.534  0.00  0.00    +0.000 C 
ATOM     15  C   UNL     1     -53.271 -59.168 -67.175  0.00  0.00    +0.000 C 
ATOM     16  C   UNL     1     -53.857 -57.280 -68.962  0.00  0.00    +0.000 C 
ATOM     17  C   UNL     1     -53.596 -60.096 -68.209  0.00  0.00    +0.000 C 
ATOM     18  C   UNL     1     -53.978 -58.521 -69.739  0.00  0.00    +0.000 C 
ATOM     19  C   UNL     1     -53.940 -59.918 -69.559  0.00  0.00    +0.000 C 
ATOM     20  C   UNL     1     -53.311 -59.684 -65.734  0.00  0.00    +0.000 C 
ATOM     21  C   UNL     1     -55.251 -56.640 -68.753  0.00  0.00    +0.000 C 
ATOM     22  C   UNL     1     -52.823 -56.295 -69.550  0.00  0.00    +0.000 C 
BRANCH  19  23
ATOM     23  O   UNL     1     -53.505 -60.772 -70.526  0.00  0.00    +0.000 OA
ATOM     24  H   UNL     1     -53.387 -61.682 -70.199  0.00  0.00    +0.000 HD
ENDBRANCH  19  23
ENDBRANCH  11  14
ENDBRANCH   9  12
ENDBRANCH   8   9
ENDBRANCH   6   8
ENDBRANCH   4   7
ENDBRANCH   3   4
ENDBRANCH   2   3
BRANCH   1  25
ATOM     25  C   UNL     1     -52.586 -45.561 -62.732  0.00  0.00    +0.000 C 
BRANCH  25  26
ATOM     26  C   UNL     1     -53.027 -44.475 -62.180  0.00  0.00    +0.000 C 
ATOM     27  C   UNL     1     -52.104 -43.628 -61.356  0.00  0.00    +0.000 C 
BRANCH  26  29
ATOM     28  C   UNL     1     -55.511 -43.740 -62.542  0.00  0.00    +0.000 C 
ATOM     29  C   UNL     1     -54.369 -44.075 -62.377  0.00  0.00    +0.000 C 
BRANCH  28  30
ATOM     30  C   UNL     1     -56.971 -43.318 -62.752  0.00  0.00    +0.000 C 
BRANCH  30  31
ATOM     31  C   UNL     1     -58.203 -42.959 -62.933  0.00  0.00    +0.000 C 
ATOM     32  C   UNL     1     -58.598 -42.259 -64.197  0.00  0.00    +0.000 C 
BRANCH  31  34
ATOM     33  C   UNL     1     -60.010 -43.541 -61.127  0.00  0.00    +0.000 C 
ATOM     34  C   UNL     1     -59.182 -43.271 -61.957  0.00  0.00    +0.000 C 
BRANCH  33  36
ATOM     35  O   UNL     1     -62.310 -44.029 -60.751  0.00  0.00    +0.000 OA
ATOM     36  C   UNL     1     -61.007 -43.871 -60.120  0.00  0.00    +0.000 C 
ATOM     37  C   UNL     1     -61.753 -45.219 -60.198  0.00  0.00    +0.000 C 
ATOM     38  C   UNL     1     -60.989 -43.116 -58.743  0.00  0.00    +0.000 C 
ATOM     39  C   UNL     1     -62.448 -45.648 -59.028  0.00  0.00    +0.000 C 
ATOM     40  C   UNL     1     -61.882 -43.847 -57.841  0.00  0.00    +0.000 C 
ATOM     41  C   UNL     1     -62.622 -45.043 -57.772  0.00  0.00    +0.000 C 
ATOM     42  C   UNL     1     -61.456 -46.293 -61.248  0.00  0.00    +0.000 C 
ATOM     43  C   UNL     1     -61.449 -41.671 -59.040  0.00  0.00    +0.000 C 
ATOM     44  C   UNL     1     -59.521 -43.186 -58.248  0.00  0.00    +0.000 C 
BRANCH  41  45
ATOM     45  O   UNL     1     -62.709 -45.756 -56.615  0.00  0.00    +0.000 OA
ATOM     46  H   UNL     1     -62.040 -46.463 -56.562  0.00  0.00    +0.000 HD
ENDBRANCH  41  45
ENDBRANCH  33  36
ENDBRANCH  31  34
ENDBRANCH  30  31
ENDBRANCH  28  30
ENDBRANCH  26  29
ENDBRANCH  25  26
ENDBRANCH   1  25
TORSDOF 16
ENDMDL
MODEL 2
REMARK VINA RESULT:      -6.4      6.887     12.156
REMARK  Name = 448438_Violaxanthin.pdbqt.pdb
REMARK  16 active torsions:
REMARK  status: ('A' for Active; 'I' for Inactive)
REMARK    1  A    between atoms: C_1  and  C_5
REMARK    2  A    between atoms: C_2  and  C_27
REMARK    3  A    between atoms: C_3  and  C_5
REMARK    4  A    between atoms: C_3  and  C_7
REMARK    5  A    between atoms: C_6  and  C_10
REMARK    6  A    between atoms: C_8  and  C_10
REMARK    7  A    between atoms: C_8  and  C_12
REMARK    8  A    between atoms: C_11  and  C_14
REMARK    9  A    between atoms: C_19  and  O_23
REMARK   10  A    between atoms: C_25  and  C_27
REMARK   11  A    between atoms: C_25  and  C_29
REMARK   12  A    between atoms: C_28  and  C_32
REMARK   13  A    between atoms: C_30  and  C_32
REMARK   14  A    between atoms: C_30  and  C_34
REMARK   15  A    between atoms: C_33  and  C_36
REMARK   16  A    between atoms: C_41  and  O_45
REMARK                            x       y       z     vdW  Elec       q    Type
REMARK                         _______ _______ _______ _____ _____    ______ ____
ROOT
ATOM      1  C   UNL     1     -54.030 -57.515 -68.267  0.00  0.00    +0.000 C 
ATOM      2  C   UNL     1     -53.260 -56.960 -69.000  0.00  0.00    +0.000 C 
ENDROOT
BRANCH   2   3
ATOM      3  C   UNL     1     -52.274 -56.254 -69.938  0.00  0.00    +0.000 C 
BRANCH   3   4
ATOM      4  C   UNL     1     -51.438 -55.659 -70.730  0.00  0.00    +0.000 C 
ATOM      5  C   UNL     1     -51.240 -56.169 -72.126  0.00  0.00    +0.000 C 
BRANCH   4   7
ATOM      6  C   UNL     1     -50.010 -53.650 -69.853  0.00  0.00    +0.000 C 
ATOM      7  C   UNL     1     -50.666 -54.573 -70.256  0.00  0.00    +0.000 C 
BRANCH   6   8
ATOM      8  C   UNL     1     -49.175 -52.471 -69.338  0.00  0.00    +0.000 C 
BRANCH   8   9
ATOM      9  C   UNL     1     -48.466 -51.476 -68.901  0.00  0.00    +0.000 C 
ATOM     10  C   UNL     1     -47.071 -51.274 -69.408  0.00  0.00    +0.000 C 
BRANCH   9  12
ATOM     11  C   UNL     1     -49.547 -49.701 -67.307  0.00  0.00    +0.000 C 
ATOM     12  C   UNL     1     -49.055 -50.516 -68.042  0.00  0.00    +0.000 C 
BRANCH  11  14
ATOM     13  O   UNL     1     -51.569 -48.682 -66.583  0.00  0.00    +0.000 OA
ATOM     14  C   UNL     1     -50.125 -48.720 -66.402  0.00  0.00    +0.000 C 
ATOM     15  C   UNL     1     -51.127 -49.179 -65.320  0.00  0.00    +0.000 C 
ATOM     16  C   UNL     1     -49.412 -47.340 -66.203  0.00  0.00    +0.000 C 
ATOM     17  C   UNL     1     -51.396 -48.265 -64.259  0.00  0.00    +0.000 C 
ATOM     18  C   UNL     1     -50.047 -46.678 -65.054  0.00  0.00    +0.000 C 
ATOM     19  C   UNL     1     -50.949 -46.957 -64.008  0.00  0.00    +0.000 C 
ATOM     20  C   UNL     1     -51.485 -50.649 -65.085  0.00  0.00    +0.000 C 
ATOM     21  C   UNL     1     -47.933 -47.667 -65.883  0.00  0.00    +0.000 C 
ATOM     22  C   UNL     1     -49.585 -46.559 -67.523  0.00  0.00    +0.000 C 
BRANCH  19  23
ATOM     23  O   UNL     1     -51.771 -46.012 -63.475  0.00  0.00    +0.000 OA
ATOM     24  H   UNL     1     -51.811 -45.201 -64.014  0.00  0.00    +0.000 HD
ENDBRANCH  19  23
ENDBRANCH  11  14
ENDBRANCH   9  12
ENDBRANCH   8   9
ENDBRANCH   6   8
ENDBRANCH   4   7
ENDBRANCH   3   4
ENDBRANCH   2   3
BRANCH   1  25
ATOM     25  C   UNL     1     -55.016 -58.222 -67.328  0.00  0.00    +0.000 C 
BRANCH  25  26
ATOM     26  C   UNL     1     -55.849 -58.819 -66.535  0.00  0.00    +0.000 C 
ATOM     27  C   UNL     1     -56.782 -59.858 -67.080  0.00  0.00    +0.000 C 
BRANCH  26  29
ATOM     28  C   UNL     1     -55.867 -58.251 -63.983  0.00  0.00    +0.000 C 
ATOM     29  C   UNL     1     -55.859 -58.510 -65.156  0.00  0.00    +0.000 C 
BRANCH  28  30
ATOM     30  C   UNL     1     -55.877 -57.927 -62.483  0.00  0.00    +0.000 C 
BRANCH  30  31
ATOM     31  C   UNL     1     -55.884 -57.649 -61.217  0.00  0.00    +0.000 C 
ATOM     32  C   UNL     1     -54.592 -57.563 -60.464  0.00  0.00    +0.000 C 
BRANCH  31  34
ATOM     33  C   UNL     1     -58.151 -57.147 -60.005  0.00  0.00    +0.000 C 
ATOM     34  C   UNL     1     -57.110 -57.380 -60.559  0.00  0.00    +0.000 C 
BRANCH  33  36
ATOM     35  O   UNL     1     -59.250 -55.733 -58.434  0.00  0.00    +0.000 OA
ATOM     36  C   UNL     1     -59.414 -56.862 -59.339  0.00  0.00    +0.000 C 
ATOM     37  C   UNL     1     -60.100 -55.497 -59.554  0.00  0.00    +0.000 C 
ATOM     38  C   UNL     1     -60.291 -58.054 -58.812  0.00  0.00    +0.000 C 
ATOM     39  C   UNL     1     -61.472 -55.390 -59.178  0.00  0.00    +0.000 C 
ATOM     40  C   UNL     1     -61.606 -57.502 -58.476  0.00  0.00    +0.000 C 
ATOM     41  C   UNL     1     -62.354 -56.315 -58.595  0.00  0.00    +0.000 C 
ATOM     42  C   UNL     1     -59.565 -54.420 -60.502  0.00  0.00    +0.000 C 
ATOM     43  C   UNL     1     -59.533 -58.641 -57.600  0.00  0.00    +0.000 C 
ATOM     44  C   UNL     1     -60.392 -59.052 -59.994  0.00  0.00    +0.000 C 
BRANCH  41  45
ATOM     45  O   UNL     1     -63.686 -56.342 -58.875  0.00  0.00    +0.000 OA
ATOM     46  H   UNL     1     -63.937 -57.113 -59.417  0.00  0.00    +0.000 HD
ENDBRANCH  41  45
ENDBRANCH  33  36
ENDBRANCH  31  34
ENDBRANCH  30  31
ENDBRANCH  28  30
ENDBRANCH  26  29
ENDBRANCH  25  26
ENDBRANCH   1  25
TORSDOF 16
ENDMDL
MODEL 3
REMARK VINA RESULT:      -6.3     26.458     31.747
REMARK  Name = 448438_Violaxanthin.pdbqt.pdb
REMARK  16 active torsions:
REMARK  status: ('A' for Active; 'I' for Inactive)
REMARK    1  A    between atoms: C_1  and  C_5
REMARK    2  A    between atoms: C_2  and  C_27
REMARK    3  A    between atoms: C_3  and  C_5
REMARK    4  A    between atoms: C_3  and  C_7
REMARK    5  A    between atoms: C_6  and  C_10
REMARK    6  A    between atoms: C_8  and  C_10
REMARK    7  A    between atoms: C_8  and  C_12
REMARK    8  A    between atoms: C_11  and  C_14
REMARK    9  A    between atoms: C_19  and  O_23
REMARK   10  A    between atoms: C_25  and  C_27
REMARK   11  A    between atoms: C_25  and  C_29
REMARK   12  A    between atoms: C_28  and  C_32
REMARK   13  A    between atoms: C_30  and  C_32
REMARK   14  A    between atoms: C_30  and  C_34
REMARK   15  A    between atoms: C_33  and  C_36
REMARK   16  A    between atoms: C_41  and  O_45
REMARK                            x       y       z     vdW  Elec       q    Type
REMARK                         _______ _______ _______ _____ _____    ______ ____
ROOT
ATOM      1  C   UNL     1     -67.833 -56.918 -36.234  0.00  0.00    +0.000 C 
ATOM      2  C   UNL     1     -67.747 -56.414 -37.319  0.00  0.00    +0.000 C 
ENDROOT
BRANCH   2   3
ATOM      3  C   UNL     1     -67.633 -55.769 -38.705  0.00  0.00    +0.000 C 
BRANCH   3   4
ATOM      4  C   UNL     1     -67.538 -55.227 -39.878  0.00  0.00    +0.000 C 
ATOM      5  C   UNL     1     -68.524 -54.179 -40.298  0.00  0.00    +0.000 C 
BRANCH   4   7
ATOM      6  C   UNL     1     -65.708 -56.051 -41.556  0.00  0.00    +0.000 C 
ATOM      7  C   UNL     1     -66.548 -55.673 -40.785  0.00  0.00    +0.000 C 
BRANCH   6   8
ATOM      8  C   UNL     1     -64.635 -56.537 -42.538  0.00  0.00    +0.000 C 
BRANCH   8   9
ATOM      9  C   UNL     1     -63.730 -56.948 -43.372  0.00  0.00    +0.000 C 
ATOM     10  C   UNL     1     -62.396 -57.401 -42.862  0.00  0.00    +0.000 C 
BRANCH   9  12
ATOM     11  C   UNL     1     -64.309 -57.198 -45.914  0.00  0.00    +0.000 C 
ATOM     12  C   UNL     1     -64.048 -57.085 -44.746  0.00  0.00    +0.000 C 
BRANCH  11  14
ATOM     13  O   UNL     1     -65.252 -58.607 -47.580  0.00  0.00    +0.000 OA
ATOM     14  C   UNL     1     -64.601 -57.329 -47.333  0.00  0.00    +0.000 C 
ATOM     15  C   UNL     1     -66.068 -57.457 -47.799  0.00  0.00    +0.000 C 
ATOM     16  C   UNL     1     -63.534 -56.876 -48.386  0.00  0.00    +0.000 C 
ATOM     17  C   UNL     1     -66.327 -57.239 -49.184  0.00  0.00    +0.000 C 
ATOM     18  C   UNL     1     -64.191 -56.862 -49.701  0.00  0.00    +0.000 C 
ATOM     19  C   UNL     1     -65.477 -56.961 -50.268  0.00  0.00    +0.000 C 
ATOM     20  C   UNL     1     -67.259 -57.364 -46.841  0.00  0.00    +0.000 C 
ATOM     21  C   UNL     1     -63.117 -55.442 -47.980  0.00  0.00    +0.000 C 
ATOM     22  C   UNL     1     -62.372 -57.889 -48.300  0.00  0.00    +0.000 C 
BRANCH  19  23
ATOM     23  O   UNL     1     -65.697 -57.492 -51.502  0.00  0.00    +0.000 OA
ATOM     24  H   UNL     1     -66.268 -56.931 -52.058  0.00  0.00    +0.000 HD
ENDBRANCH  19  23
ENDBRANCH  11  14
ENDBRANCH   9  12
ENDBRANCH   8   9
ENDBRANCH   6   8
ENDBRANCH   4   7
ENDBRANCH   3   4
ENDBRANCH   2   3
BRANCH   1  25
ATOM     25  C   UNL     1     -67.945 -57.562 -34.846  0.00  0.00    +0.000 C 
BRANCH  25  26
ATOM     26  C   UNL     1     -68.040 -58.107 -33.674  0.00  0.00    +0.000 C 
ATOM     27  C   UNL     1     -67.373 -59.423 -33.407  0.00  0.00    +0.000 C 
BRANCH  26  29
ATOM     28  C   UNL     1     -69.353 -56.893 -31.766  0.00  0.00    +0.000 C 
ATOM     29  C   UNL     1     -68.750 -57.449 -32.643  0.00  0.00    +0.000 C 
BRANCH  28  30
ATOM     30  C   UNL     1     -70.127 -56.190 -30.644  0.00  0.00    +0.000 C 
BRANCH  30  31
ATOM     31  C   UNL     1     -70.777 -55.593 -29.694  0.00  0.00    +0.000 C 
ATOM     32  C   UNL     1     -70.819 -54.096 -29.645  0.00  0.00    +0.000 C 
BRANCH  31  34
ATOM     33  C   UNL     1     -72.086 -57.001 -27.914  0.00  0.00    +0.000 C 
ATOM     34  C   UNL     1     -71.486 -56.356 -28.734  0.00  0.00    +0.000 C 
BRANCH  33  36
ATOM     35  O   UNL     1     -73.383 -56.882 -25.920  0.00  0.00    +0.000 OA
ATOM     36  C   UNL     1     -72.812 -57.776 -26.919  0.00  0.00    +0.000 C 
ATOM     37  C   UNL     1     -74.330 -57.561 -26.743  0.00  0.00    +0.000 C 
ATOM     38  C   UNL     1     -72.188 -59.113 -26.379  0.00  0.00    +0.000 C 
ATOM     39  C   UNL     1     -75.050 -58.561 -26.024  0.00  0.00    +0.000 C 
ATOM     40  C   UNL     1     -73.244 -59.813 -25.645  0.00  0.00    +0.000 C 
ATOM     41  C   UNL     1     -74.627 -59.741 -25.389  0.00  0.00    +0.000 C 
ATOM     42  C   UNL     1     -75.159 -56.616 -27.616  0.00  0.00    +0.000 C 
ATOM     43  C   UNL     1     -70.985 -58.701 -25.501  0.00  0.00    +0.000 C 
ATOM     44  C   UNL     1     -71.762 -59.912 -27.638  0.00  0.00    +0.000 C 
BRANCH  41  45
ATOM     45  O   UNL     1     -75.396 -60.863 -25.329  0.00  0.00    +0.000 OA
ATOM     46  H   UNL     1     -75.604 -61.123 -24.413  0.00  0.00    +0.000 HD
ENDBRANCH  41  45
ENDBRANCH  33  36
ENDBRANCH  31  34
ENDBRANCH  30  31
ENDBRANCH  28  30
ENDBRANCH  26  29
ENDBRANCH  25  26
ENDBRANCH   1  25
TORSDOF 16
ENDMDL
MODEL 4
REMARK VINA RESULT:      -6.2     35.193     43.800
REMARK  Name = 448438_Violaxanthin.pdbqt.pdb
REMARK  16 active torsions:
REMARK  status: ('A' for Active; 'I' for Inactive)
REMARK    1  A    between atoms: C_1  and  C_5
REMARK    2  A    between atoms: C_2  and  C_27
REMARK    3  A    between atoms: C_3  and  C_5
REMARK    4  A    between atoms: C_3  and  C_7
REMARK    5  A    between atoms: C_6  and  C_10
REMARK    6  A    between atoms: C_8  and  C_10
REMARK    7  A    between atoms: C_8  and  C_12
REMARK    8  A    between atoms: C_11  and  C_14
REMARK    9  A    between atoms: C_19  and  O_23
REMARK   10  A    between atoms: C_25  and  C_27
REMARK   11  A    between atoms: C_25  and  C_29
REMARK   12  A    between atoms: C_28  and  C_32
REMARK   13  A    between atoms: C_30  and  C_32
REMARK   14  A    between atoms: C_30  and  C_34
REMARK   15  A    between atoms: C_33  and  C_36
REMARK   16  A    between atoms: C_41  and  O_45
REMARK                            x       y       z     vdW  Elec       q    Type
REMARK                         _______ _______ _______ _____ _____    ______ ____
ROOT
ATOM      1  C   UNL     1     -73.216 -57.219 -23.606  0.00  0.00    +0.000 C 
ATOM      2  C   UNL     1     -73.709 -56.687 -22.650  0.00  0.00    +0.000 C 
ENDROOT
BRANCH   2   3
ATOM      3  C   UNL     1     -74.336 -56.009 -21.427  0.00  0.00    +0.000 C 
BRANCH   3   4
ATOM      4  C   UNL     1     -74.864 -55.435 -20.392  0.00  0.00    +0.000 C 
ATOM      5  C   UNL     1     -76.134 -55.975 -19.806  0.00  0.00    +0.000 C 
BRANCH   4   7
ATOM      6  C   UNL     1     -73.786 -53.264 -19.408  0.00  0.00    +0.000 C 
ATOM      7  C   UNL     1     -74.281 -54.261 -19.860  0.00  0.00    +0.000 C 
BRANCH   6   8
ATOM      8  C   UNL     1     -73.155 -51.991 -18.830  0.00  0.00    +0.000 C 
BRANCH   8   9
ATOM      9  C   UNL     1     -72.624 -50.915 -18.338  0.00  0.00    +0.000 C 
ATOM     10  C   UNL     1     -73.244 -50.253 -17.146  0.00  0.00    +0.000 C 
BRANCH   9  12
ATOM     11  C   UNL     1     -70.347 -50.041 -19.295  0.00  0.00    +0.000 C 
ATOM     12  C   UNL     1     -71.392 -50.439 -18.852  0.00  0.00    +0.000 C 
BRANCH  11  14
ATOM     13  O   UNL     1     -69.154 -49.601 -21.303  0.00  0.00    +0.000 OA
ATOM     14  C   UNL     1     -69.085 -49.576 -19.850  0.00  0.00    +0.000 C 
ATOM     15  C   UNL     1     -69.060 -48.302 -20.721  0.00  0.00    +0.000 C 
ATOM     16  C   UNL     1     -67.738 -50.052 -19.208  0.00  0.00    +0.000 C 
ATOM     17  C   UNL     1     -67.787 -47.701 -20.950  0.00  0.00    +0.000 C 
ATOM     18  C   UNL     1     -66.663 -49.228 -19.777  0.00  0.00    +0.000 C 
ATOM     19  C   UNL     1     -66.488 -48.072 -20.564  0.00  0.00    +0.000 C 
ATOM     20  C   UNL     1     -70.298 -47.434 -20.966  0.00  0.00    +0.000 C 
ATOM     21  C   UNL     1     -67.873 -49.784 -17.689  0.00  0.00    +0.000 C 
ATOM     22  C   UNL     1     -67.595 -51.552 -19.544  0.00  0.00    +0.000 C 
BRANCH  19  23
ATOM     23  O   UNL     1     -65.421 -47.902 -21.392  0.00  0.00    +0.000 OA
ATOM     24  H   UNL     1     -65.631 -47.356 -22.171  0.00  0.00    +0.000 HD
ENDBRANCH  19  23
ENDBRANCH  11  14
ENDBRANCH   9  12
ENDBRANCH   8   9
ENDBRANCH   6   8
ENDBRANCH   4   7
ENDBRANCH   3   4
ENDBRANCH   2   3
BRANCH   1  25
ATOM     25  C   UNL     1     -72.588 -57.898 -24.830  0.00  0.00    +0.000 C 
BRANCH  25  26
ATOM     26  C   UNL     1     -72.057 -58.472 -25.863  0.00  0.00    +0.000 C 
ATOM     27  C   UNL     1     -71.896 -59.963 -25.887  0.00  0.00    +0.000 C 
BRANCH  26  29
ATOM     28  C   UNL     1     -71.318 -57.039 -27.922  0.00  0.00    +0.000 C 
ATOM     29  C   UNL     1     -71.656 -57.697 -26.975  0.00  0.00    +0.000 C 
BRANCH  28  30
ATOM     30  C   UNL     1     -70.892 -56.202 -29.135  0.00  0.00    +0.000 C 
BRANCH  30  31
ATOM     31  C   UNL     1     -70.537 -55.495 -30.161  0.00  0.00    +0.000 C 
ATOM     32  C   UNL     1     -70.429 -54.005 -30.041  0.00  0.00    +0.000 C 
BRANCH  31  34
ATOM     33  C   UNL     1     -69.921 -56.685 -32.413  0.00  0.00    +0.000 C 
ATOM     34  C   UNL     1     -70.204 -56.136 -31.380  0.00  0.00    +0.000 C 
BRANCH  33  36
ATOM     35  O   UNL     1     -68.264 -56.925 -34.106  0.00  0.00    +0.000 OA
ATOM     36  C   UNL     1     -69.582 -57.355 -33.660  0.00  0.00    +0.000 C 
ATOM     37  C   UNL     1     -68.358 -58.293 -33.713  0.00  0.00    +0.000 C 
ATOM     38  C   UNL     1     -70.678 -57.507 -34.774  0.00  0.00    +0.000 C 
ATOM     39  C   UNL     1     -68.267 -59.182 -34.826  0.00  0.00    +0.000 C 
ATOM     40  C   UNL     1     -70.161 -58.461 -35.757  0.00  0.00    +0.000 C 
ATOM     41  C   UNL     1     -69.092 -59.358 -35.949  0.00  0.00    +0.000 C 
ATOM     42  C   UNL     1     -67.497 -58.633 -32.494  0.00  0.00    +0.000 C 
ATOM     43  C   UNL     1     -70.909 -56.089 -35.344  0.00  0.00    +0.000 C 
ATOM     44  C   UNL     1     -71.930 -58.072 -34.055  0.00  0.00    +0.000 C 
BRANCH  41  45
ATOM     45  O   UNL     1     -69.280 -60.569 -36.543  0.00  0.00    +0.000 OA
ATOM     46  H   UNL     1     -68.446 -61.059 -36.661  0.00  0.00    +0.000 HD
ENDBRANCH  41  45
ENDBRANCH  33  36
ENDBRANCH  31  34
ENDBRANCH  30  31
ENDBRANCH  28  30
ENDBRANCH  26  29
ENDBRANCH  25  26
ENDBRANCH   1  25
TORSDOF 16
ENDMDL
MODEL 5
REMARK VINA RESULT:      -6.2     29.368     37.529
REMARK  Name = 448438_Violaxanthin.pdbqt.pdb
REMARK  16 active torsions:
REMARK  status: ('A' for Active; 'I' for Inactive)
REMARK    1  A    between atoms: C_1  and  C_5
REMARK    2  A    between atoms: C_2  and  C_27
REMARK    3  A    between atoms: C_3  and  C_5
REMARK    4  A    between atoms: C_3  and  C_7
REMARK    5  A    between atoms: C_6  and  C_10
REMARK    6  A    between atoms: C_8  and  C_10
REMARK    7  A    between atoms: C_8  and  C_12
REMARK    8  A    between atoms: C_11  and  C_14
REMARK    9  A    between atoms: C_19  and  O_23
REMARK   10  A    between atoms: C_25  and  C_27
REMARK   11  A    between atoms: C_25  and  C_29
REMARK   12  A    between atoms: C_28  and  C_32
REMARK   13  A    between atoms: C_30  and  C_32
REMARK   14  A    between atoms: C_30  and  C_34
REMARK   15  A    between atoms: C_33  and  C_36
REMARK   16  A    between atoms: C_41  and  O_45
REMARK                            x       y       z     vdW  Elec       q    Type
REMARK                         _______ _______ _______ _____ _____    ______ ____
ROOT
ATOM      1  C   UNL     1     -69.444 -56.887 -34.040  0.00  0.00    +0.000 C 
ATOM      2  C   UNL     1     -69.680 -56.338 -32.999  0.00  0.00    +0.000 C 
ENDROOT
BRANCH   2   3
ATOM      3  C   UNL     1     -69.983 -55.641 -31.668  0.00  0.00    +0.000 C 
BRANCH   3   4
ATOM      4  C   UNL     1     -70.241 -55.052 -30.543  0.00  0.00    +0.000 C 
ATOM      5  C   UNL     1     -69.986 -53.582 -30.394  0.00  0.00    +0.000 C 
BRANCH   4   7
ATOM      6  C   UNL     1     -71.085 -56.450 -28.499  0.00  0.00    +0.000 C 
ATOM      7  C   UNL     1     -70.697 -55.808 -29.437  0.00  0.00    +0.000 C 
BRANCH   6   8
ATOM      8  C   UNL     1     -71.581 -57.271 -27.302  0.00  0.00    +0.000 C 
BRANCH   8   9
ATOM      9  C   UNL     1     -71.998 -57.964 -26.288  0.00  0.00    +0.000 C 
ATOM     10  C   UNL     1     -71.367 -59.287 -25.979  0.00  0.00    +0.000 C 
BRANCH   9  12
ATOM     11  C   UNL     1     -73.783 -56.945 -24.665  0.00  0.00    +0.000 C 
ATOM     12  C   UNL     1     -72.961 -57.415 -25.406  0.00  0.00    +0.000 C 
BRANCH  11  14
ATOM     13  O   UNL     1     -75.292 -57.387 -22.882  0.00  0.00    +0.000 OA
ATOM     14  C   UNL     1     -74.787 -56.364 -23.787  0.00  0.00    +0.000 C 
ATOM     15  C   UNL     1     -74.544 -56.342 -22.262  0.00  0.00    +0.000 C 
ATOM     16  C   UNL     1     -75.845 -55.371 -24.375  0.00  0.00    +0.000 C 
ATOM     17  C   UNL     1     -75.371 -55.475 -21.489  0.00  0.00    +0.000 C 
ATOM     18  C   UNL     1     -76.538 -54.744 -23.241  0.00  0.00    +0.000 C 
ATOM     19  C   UNL     1     -76.438 -54.632 -21.840  0.00  0.00    +0.000 C 
ATOM     20  C   UNL     1     -73.241 -56.825 -21.618  0.00  0.00    +0.000 C 
ATOM     21  C   UNL     1     -75.041 -54.311 -25.165  0.00  0.00    +0.000 C 
ATOM     22  C   UNL     1     -76.784 -56.207 -25.272  0.00  0.00    +0.000 C 
BRANCH  19  23
ATOM     23  O   UNL     1     -77.527 -54.485 -21.036  0.00  0.00    +0.000 OA
ATOM     24  H   UNL     1     -77.950 -53.613 -21.131  0.00  0.00    +0.000 HD
ENDBRANCH  19  23
ENDBRANCH  11  14
ENDBRANCH   9  12
ENDBRANCH   8   9
ENDBRANCH   6   8
ENDBRANCH   4   7
ENDBRANCH   3   4
ENDBRANCH   2   3
BRANCH   1  25
ATOM     25  C   UNL     1     -69.142 -57.586 -35.371  0.00  0.00    +0.000 C 
BRANCH  25  26
ATOM     26  C   UNL     1     -68.887 -58.176 -36.496  0.00  0.00    +0.000 C 
ATOM     27  C   UNL     1     -69.204 -59.632 -36.663  0.00  0.00    +0.000 C 
BRANCH  26  29
ATOM     28  C   UNL     1     -67.862 -56.821 -38.484  0.00  0.00    +0.000 C 
ATOM     29  C   UNL     1     -68.335 -57.442 -37.571  0.00  0.00    +0.000 C 
BRANCH  28  30
ATOM     30  C   UNL     1     -67.252 -56.028 -39.647  0.00  0.00    +0.000 C 
BRANCH  30  31
ATOM     31  C   UNL     1     -66.735 -55.363 -40.632  0.00  0.00    +0.000 C 
ATOM     32  C   UNL     1     -66.866 -53.871 -40.677  0.00  0.00    +0.000 C 
BRANCH  31  34
ATOM     33  C   UNL     1     -65.383 -56.620 -42.492  0.00  0.00    +0.000 C 
ATOM     34  C   UNL     1     -66.007 -56.043 -41.640  0.00  0.00    +0.000 C 
BRANCH  33  36
ATOM     35  O   UNL     1     -63.579 -56.450 -44.037  0.00  0.00    +0.000 OA
ATOM     36  C   UNL     1     -64.625 -57.320 -43.518  0.00  0.00    +0.000 C 
ATOM     37  C   UNL     1     -63.120 -57.587 -43.307  0.00  0.00    +0.000 C 
ATOM     38  C   UNL     1     -65.388 -58.196 -44.575  0.00  0.00    +0.000 C 
ATOM     39  C   UNL     1     -62.506 -58.559 -44.151  0.00  0.00    +0.000 C 
ATOM     40  C   UNL     1     -64.383 -59.003 -45.270  0.00  0.00    +0.000 C 
ATOM     41  C   UNL     1     -63.015 -59.334 -45.206  0.00  0.00    +0.000 C 
ATOM     42  C   UNL     1     -62.366 -57.219 -42.026  0.00  0.00    +0.000 C 
ATOM     43  C   UNL     1     -66.135 -57.203 -45.495  0.00  0.00    +0.000 C 
ATOM     44  C   UNL     1     -66.352 -59.093 -43.757  0.00  0.00    +0.000 C 
BRANCH  41  45
ATOM     45  O   UNL     1     -62.579 -60.597 -45.471  0.00  0.00    +0.000 OA
ATOM     46  H   UNL     1     -61.861 -60.875 -44.873  0.00  0.00    +0.000 HD
ENDBRANCH  41  45
ENDBRANCH  33  36
ENDBRANCH  31  34
ENDBRANCH  30  31
ENDBRANCH  28  30
ENDBRANCH  26  29
ENDBRANCH  25  26
ENDBRANCH   1  25
TORSDOF 16
ENDMDL
MODEL 6
REMARK VINA RESULT:      -6.2     29.632     35.210
REMARK  Name = 448438_Violaxanthin.pdbqt.pdb
REMARK  16 active torsions:
REMARK  status: ('A' for Active; 'I' for Inactive)
REMARK    1  A    between atoms: C_1  and  C_5
REMARK    2  A    between atoms: C_2  and  C_27
REMARK    3  A    between atoms: C_3  and  C_5
REMARK    4  A    between atoms: C_3  and  C_7
REMARK    5  A    between atoms: C_6  and  C_10
REMARK    6  A    between atoms: C_8  and  C_10
REMARK    7  A    between atoms: C_8  and  C_12
REMARK    8  A    between atoms: C_11  and  C_14
REMARK    9  A    between atoms: C_19  and  O_23
REMARK   10  A    between atoms: C_25  and  C_27
REMARK   11  A    between atoms: C_25  and  C_29
REMARK   12  A    between atoms: C_28  and  C_32
REMARK   13  A    between atoms: C_30  and  C_32
REMARK   14  A    between atoms: C_30  and  C_34
REMARK   15  A    between atoms: C_33  and  C_36
REMARK   16  A    between atoms: C_41  and  O_45
REMARK                            x       y       z     vdW  Elec       q    Type
REMARK                         _______ _______ _______ _____ _____    ______ ____
ROOT
ATOM      1  C   UNL     1     -69.915 -56.450 -32.968  0.00  0.00    +0.000 C 
ATOM      2  C   UNL     1     -69.663 -56.976 -34.016  0.00  0.00    +0.000 C 
ENDROOT
BRANCH   2   3
ATOM      3  C   UNL     1     -69.341 -57.646 -35.357  0.00  0.00    +0.000 C 
BRANCH   3   4
ATOM      4  C   UNL     1     -69.071 -58.213 -36.491  0.00  0.00    +0.000 C 
ATOM      5  C   UNL     1     -69.317 -59.681 -36.667  0.00  0.00    +0.000 C 
BRANCH   4   7
ATOM      6  C   UNL     1     -67.981 -56.825 -38.421  0.00  0.00    +0.000 C 
ATOM      7  C   UNL     1     -68.481 -57.462 -37.535  0.00  0.00    +0.000 C 
BRANCH   6   8
ATOM      8  C   UNL     1     -67.342 -56.013 -39.555  0.00  0.00    +0.000 C 
BRANCH   8   9
ATOM      9  C   UNL     1     -66.802 -55.329 -40.515  0.00  0.00    +0.000 C 
ATOM     10  C   UNL     1     -66.866 -53.833 -40.495  0.00  0.00    +0.000 C 
BRANCH   9  12
ATOM     11  C   UNL     1     -65.407 -56.548 -42.368  0.00  0.00    +0.000 C 
ATOM     12  C   UNL     1     -66.047 -55.992 -41.515  0.00  0.00    +0.000 C 
BRANCH  11  14
ATOM     13  O   UNL     1     -63.659 -56.267 -43.954  0.00  0.00    +0.000 OA
ATOM     14  C   UNL     1     -64.637 -57.201 -43.415  0.00  0.00    +0.000 C 
ATOM     15  C   UNL     1     -63.113 -57.376 -43.242  0.00  0.00    +0.000 C 
ATOM     16  C   UNL     1     -65.368 -58.119 -44.452  0.00  0.00    +0.000 C 
ATOM     17  C   UNL     1     -62.467 -58.306 -44.110  0.00  0.00    +0.000 C 
ATOM     18  C   UNL     1     -64.334 -58.848 -45.200  0.00  0.00    +0.000 C 
ATOM     19  C   UNL     1     -62.948 -59.098 -45.165  0.00  0.00    +0.000 C 
ATOM     20  C   UNL     1     -62.366 -56.974 -41.967  0.00  0.00    +0.000 C 
ATOM     21  C   UNL     1     -66.223 -59.105 -43.619  0.00  0.00    +0.000 C 
ATOM     22  C   UNL     1     -66.218 -57.188 -45.343  0.00  0.00    +0.000 C 
BRANCH  19  23
ATOM     23  O   UNL     1     -62.212 -59.313 -46.290  0.00  0.00    +0.000 OA
ATOM     24  H   UNL     1     -62.695 -59.822 -46.965  0.00  0.00    +0.000 HD
ENDBRANCH  19  23
ENDBRANCH  11  14
ENDBRANCH   9  12
ENDBRANCH   8   9
ENDBRANCH   6   8
ENDBRANCH   4   7
ENDBRANCH   3   4
ENDBRANCH   2   3
BRANCH   1  25
ATOM     25  C   UNL     1     -70.238 -55.779 -31.627  0.00  0.00    +0.000 C 
BRANCH  25  26
ATOM     26  C   UNL     1     -70.510 -55.213 -30.494  0.00  0.00    +0.000 C 
ATOM     27  C   UNL     1     -70.506 -53.717 -30.388  0.00  0.00    +0.000 C 
BRANCH  26  29
ATOM     28  C   UNL     1     -71.114 -56.671 -28.409  0.00  0.00    +0.000 C 
ATOM     29  C   UNL     1     -70.835 -56.003 -29.367  0.00  0.00    +0.000 C 
BRANCH  28  30
ATOM     30  C   UNL     1     -71.474 -57.519 -27.183  0.00  0.00    +0.000 C 
BRANCH  30  31
ATOM     31  C   UNL     1     -71.782 -58.232 -26.145  0.00  0.00    +0.000 C 
ATOM     32  C   UNL     1     -70.991 -59.464 -25.824  0.00  0.00    +0.000 C 
BRANCH  31  34
ATOM     33  C   UNL     1     -73.728 -57.476 -24.562  0.00  0.00    +0.000 C 
ATOM     34  C   UNL     1     -72.833 -57.820 -25.289  0.00  0.00    +0.000 C 
BRANCH  33  36
ATOM     35  O   UNL     1     -76.042 -56.926 -24.442  0.00  0.00    +0.000 OA
ATOM     36  C   UNL     1     -74.809 -57.065 -23.679  0.00  0.00    +0.000 C 
ATOM     37  C   UNL     1     -76.031 -57.987 -23.489  0.00  0.00    +0.000 C 
ATOM     38  C   UNL     1     -74.538 -55.965 -22.591  0.00  0.00    +0.000 C 
ATOM     39  C   UNL     1     -76.882 -57.720 -22.375  0.00  0.00    +0.000 C 
ATOM     40  C   UNL     1     -75.682 -55.975 -21.677  0.00  0.00    +0.000 C 
ATOM     41  C   UNL     1     -76.843 -56.719 -21.390  0.00  0.00    +0.000 C 
ATOM     42  C   UNL     1     -76.154 -59.374 -24.126  0.00  0.00    +0.000 C 
ATOM     43  C   UNL     1     -74.366 -54.635 -23.360  0.00  0.00    +0.000 C 
ATOM     44  C   UNL     1     -73.241 -56.407 -21.865  0.00  0.00    +0.000 C 
BRANCH  41  45
ATOM     45  O   UNL     1     -77.252 -56.929 -20.108  0.00  0.00    +0.000 OA
ATOM     46  H   UNL     1     -77.989 -56.345 -19.853  0.00  0.00    +0.000 HD
ENDBRANCH  41  45
ENDBRANCH  33  36
ENDBRANCH  31  34
ENDBRANCH  30  31
ENDBRANCH  28  30
ENDBRANCH  26  29
ENDBRANCH  25  26
ENDBRANCH   1  25
TORSDOF 16
ENDMDL
MODEL 7
REMARK VINA RESULT:      -6.0      8.750     13.700
REMARK  Name = 448438_Violaxanthin.pdbqt.pdb
REMARK  16 active torsions:
REMARK  status: ('A' for Active; 'I' for Inactive)
REMARK    1  A    between atoms: C_1  and  C_5
REMARK    2  A    between atoms: C_2  and  C_27
REMARK    3  A    between atoms: C_3  and  C_5
REMARK    4  A    between atoms: C_3  and  C_7
REMARK    5  A    between atoms: C_6  and  C_10
REMARK    6  A    between atoms: C_8  and  C_10
REMARK    7  A    between atoms: C_8  and  C_12
REMARK    8  A    between atoms: C_11  and  C_14
REMARK    9  A    between atoms: C_19  and  O_23
REMARK   10  A    between atoms: C_25  and  C_27
REMARK   11  A    between atoms: C_25  and  C_29
REMARK   12  A    between atoms: C_28  and  C_32
REMARK   13  A    between atoms: C_30  and  C_32
REMARK   14  A    between atoms: C_30  and  C_34
REMARK   15  A    between atoms: C_33  and  C_36
REMARK   16  A    between atoms: C_41  and  O_45
REMARK                            x       y       z     vdW  Elec       q    Type
REMARK                         _______ _______ _______ _____ _____    ______ ____
ROOT
ATOM      1  C   UNL     1     -51.454 -51.618 -73.123  0.00  0.00    +0.000 C 
ATOM      2  C   UNL     1     -51.354 -52.753 -72.747  0.00  0.00    +0.000 C 
ENDROOT
BRANCH   2   3
ATOM      3  C   UNL     1     -51.225 -54.204 -72.268  0.00  0.00    +0.000 C 
BRANCH   3   4
ATOM      4  C   UNL     1     -51.116 -55.430 -71.861  0.00  0.00    +0.000 C 
ATOM      5  C   UNL     1     -50.289 -56.404 -72.644  0.00  0.00    +0.000 C 
BRANCH   4   7
ATOM      6  C   UNL     1     -52.440 -56.230 -69.752  0.00  0.00    +0.000 C 
ATOM      7  C   UNL     1     -51.832 -55.862 -70.721  0.00  0.00    +0.000 C 
BRANCH   6   8
ATOM      8  C   UNL     1     -53.216 -56.697 -68.514  0.00  0.00    +0.000 C 
BRANCH   8   9
ATOM      9  C   UNL     1     -53.869 -57.094 -67.466  0.00  0.00    +0.000 C 
ATOM     10  C   UNL     1     -54.882 -58.190 -67.589  0.00  0.00    +0.000 C 
BRANCH   9  12
ATOM     11  C   UNL     1     -53.261 -56.139 -65.105  0.00  0.00    +0.000 C 
ATOM     12  C   UNL     1     -53.535 -56.577 -66.190  0.00  0.00    +0.000 C 
BRANCH  11  14
ATOM     13  O   UNL     1     -52.495 -56.685 -62.922  0.00  0.00    +0.000 OA
ATOM     14  C   UNL     1     -52.952 -55.607 -63.786  0.00  0.00    +0.000 C 
ATOM     15  C   UNL     1     -51.510 -55.705 -63.244  0.00  0.00    +0.000 C 
ATOM     16  C   UNL     1     -53.910 -54.552 -63.136  0.00  0.00    +0.000 C 
ATOM     17  C   UNL     1     -51.183 -54.883 -62.125  0.00  0.00    +0.000 C 
ATOM     18  C   UNL     1     -53.223 -53.999 -61.960  0.00  0.00    +0.000 C 
ATOM     19  C   UNL     1     -51.952 -53.996 -61.353  0.00  0.00    +0.000 C 
ATOM     20  C   UNL     1     -50.345 -56.260 -64.068  0.00  0.00    +0.000 C 
ATOM     21  C   UNL     1     -54.118 -53.451 -64.204  0.00  0.00    +0.000 C 
ATOM     22  C   UNL     1     -55.213 -55.300 -62.780  0.00  0.00    +0.000 C 
BRANCH  19  23
ATOM     23  O   UNL     1     -51.781 -53.888 -60.007  0.00  0.00    +0.000 OA
ATOM     24  H   UNL     1     -51.476 -54.718 -59.598  0.00  0.00    +0.000 HD
ENDBRANCH  19  23
ENDBRANCH  11  14
ENDBRANCH   9  12
ENDBRANCH   8   9
ENDBRANCH   6   8
ENDBRANCH   4   7
ENDBRANCH   3   4
ENDBRANCH   2   3
BRANCH   1  25
ATOM     25  C   UNL     1     -51.583 -50.168 -73.603  0.00  0.00    +0.000 C 
BRANCH  25  26
ATOM     26  C   UNL     1     -51.693 -48.941 -74.008  0.00  0.00    +0.000 C 
ATOM     27  C   UNL     1     -50.587 -47.965 -73.738  0.00  0.00    +0.000 C 
BRANCH  26  29
ATOM     28  C   UNL     1     -53.817 -48.186 -75.333  0.00  0.00    +0.000 C 
ATOM     29  C   UNL     1     -52.840 -48.533 -74.726  0.00  0.00    +0.000 C 
BRANCH  28  30
ATOM     30  C   UNL     1     -55.069 -47.747 -76.103  0.00  0.00    +0.000 C 
BRANCH  30  31
ATOM     31  C   UNL     1     -56.129 -47.380 -76.752  0.00  0.00    +0.000 C 
ATOM     32  C   UNL     1     -56.375 -45.927 -77.020  0.00  0.00    +0.000 C 
BRANCH  31  34
ATOM     33  C   UNL     1     -57.790 -49.184 -77.674  0.00  0.00    +0.000 C 
ATOM     34  C   UNL     1     -57.028 -48.356 -77.248  0.00  0.00    +0.000 C 
BRANCH  33  36
ATOM     35  O   UNL     1     -59.412 -50.829 -77.093  0.00  0.00    +0.000 OA
ATOM     36  C   UNL     1     -58.708 -50.187 -78.195  0.00  0.00    +0.000 C 
ATOM     37  C   UNL     1     -60.224 -50.032 -77.953  0.00  0.00    +0.000 C 
ATOM     38  C   UNL     1     -58.239 -51.127 -79.362  0.00  0.00    +0.000 C 
ATOM     39  C   UNL     1     -61.096 -50.823 -78.758  0.00  0.00    +0.000 C 
ATOM     40  C   UNL     1     -59.433 -51.803 -79.874  0.00  0.00    +0.000 C 
ATOM     41  C   UNL     1     -60.836 -51.782 -79.751  0.00  0.00    +0.000 C 
ATOM     42  C   UNL     1     -60.851 -48.827 -77.247  0.00  0.00    +0.000 C 
ATOM     43  C   UNL     1     -57.195 -52.086 -78.747  0.00  0.00    +0.000 C 
ATOM     44  C   UNL     1     -57.629 -50.188 -80.434  0.00  0.00    +0.000 C 
BRANCH  41  45
ATOM     45  O   UNL     1     -61.645 -51.965 -80.831  0.00  0.00    +0.000 OA
ATOM     46  H   UNL     1     -62.483 -51.473 -80.755  0.00  0.00    +0.000 HD
ENDBRANCH  41  45
ENDBRANCH  33  36
ENDBRANCH  31  34
ENDBRANCH  30  31
ENDBRANCH  28  30
ENDBRANCH  26  29
ENDBRANCH  25  26
ENDBRANCH   1  25
TORSDOF 16
ENDMDL
MODEL 8
REMARK VINA RESULT:      -6.0     34.996     41.337
REMARK  Name = 448438_Violaxanthin.pdbqt.pdb
REMARK  16 active torsions:
REMARK  status: ('A' for Active; 'I' for Inactive)
REMARK    1  A    between atoms: C_1  and  C_5
REMARK    2  A    between atoms: C_2  and  C_27
REMARK    3  A    between atoms: C_3  and  C_5
REMARK    4  A    between atoms: C_3  and  C_7
REMARK    5  A    between atoms: C_6  and  C_10
REMARK    6  A    between atoms: C_8  and  C_10
REMARK    7  A    between atoms: C_8  and  C_12
REMARK    8  A    between atoms: C_11  and  C_14
REMARK    9  A    between atoms: C_19  and  O_23
REMARK   10  A    between atoms: C_25  and  C_27
REMARK   11  A    between atoms: C_25  and  C_29
REMARK   12  A    between atoms: C_28  and  C_32
REMARK   13  A    between atoms: C_30  and  C_32
REMARK   14  A    between atoms: C_30  and  C_34
REMARK   15  A    between atoms: C_33  and  C_36
REMARK   16  A    between atoms: C_41  and  O_45
REMARK                            x       y       z     vdW  Elec       q    Type
REMARK                         _______ _______ _______ _____ _____    ______ ____
ROOT
ATOM      1  C   UNL     1     -71.562 -57.308 -26.996  0.00  0.00    +0.000 C 
ATOM      2  C   UNL     1     -71.847 -57.716 -25.904  0.00  0.00    +0.000 C 
ENDROOT
BRANCH   2   3
ATOM      3  C   UNL     1     -72.208 -58.239 -24.509  0.00  0.00    +0.000 C 
BRANCH   3   4
ATOM      4  C   UNL     1     -72.515 -58.680 -23.329  0.00  0.00    +0.000 C 
ATOM      5  C   UNL     1     -73.224 -57.783 -22.360  0.00  0.00    +0.000 C 
BRANCH   4   7
ATOM      6  C   UNL     1     -71.786 -61.084 -22.600  0.00  0.00    +0.000 C 
ATOM      7  C   UNL     1     -72.121 -59.980 -22.935  0.00  0.00    +0.000 C 
BRANCH   6   8
ATOM      8  C   UNL     1     -71.360 -62.493 -22.171  0.00  0.00    +0.000 C 
BRANCH   8   9
ATOM      9  C   UNL     1     -70.997 -63.684 -21.805  0.00  0.00    +0.000 C 
ATOM     10  C   UNL     1     -72.030 -64.748 -21.596  0.00  0.00    +0.000 C 
BRANCH   9  12
ATOM     11  C   UNL     1     -68.451 -64.280 -21.648  0.00  0.00    +0.000 C 
ATOM     12  C   UNL     1     -69.620 -64.007 -21.725  0.00  0.00    +0.000 C 
BRANCH  11  14
ATOM     13  O   UNL     1     -66.242 -63.486 -22.018  0.00  0.00    +0.000 OA
ATOM     14  C   UNL     1     -67.037 -64.603 -21.532  0.00  0.00    +0.000 C 
ATOM     15  C   UNL     1     -66.134 -63.747 -20.619  0.00  0.00    +0.000 C 
ATOM     16  C   UNL     1     -66.539 -66.035 -21.922  0.00  0.00    +0.000 C 
ATOM     17  C   UNL     1     -64.863 -64.294 -20.271  0.00  0.00    +0.000 C 
ATOM     18  C   UNL     1     -65.152 -66.162 -21.452  0.00  0.00    +0.000 C 
ATOM     19  C   UNL     1     -64.220 -65.487 -20.640  0.00  0.00    +0.000 C 
ATOM     20  C   UNL     1     -66.669 -62.609 -19.745  0.00  0.00    +0.000 C 
ATOM     21  C   UNL     1     -67.455 -67.026 -21.164  0.00  0.00    +0.000 C 
ATOM     22  C   UNL     1     -66.671 -66.146 -23.456  0.00  0.00    +0.000 C 
BRANCH  19  23
ATOM     23  O   UNL     1     -62.878 -65.534 -20.867  0.00  0.00    +0.000 OA
ATOM     24  H   UNL     1     -62.639 -65.254 -21.769  0.00  0.00    +0.000 HD
ENDBRANCH  19  23
ENDBRANCH  11  14
ENDBRANCH   9  12
ENDBRANCH   8   9
ENDBRANCH   6   8
ENDBRANCH   4   7
ENDBRANCH   3   4
ENDBRANCH   2   3
BRANCH   1  25
ATOM     25  C   UNL     1     -71.201 -56.786 -28.391  0.00  0.00    +0.000 C 
BRANCH  25  26
ATOM     26  C   UNL     1     -70.895 -56.344 -29.571  0.00  0.00    +0.000 C 
ATOM     27  C   UNL     1     -70.538 -57.312 -30.660  0.00  0.00    +0.000 C 
BRANCH  26  29
ATOM     28  C   UNL     1     -70.951 -53.777 -30.062  0.00  0.00    +0.000 C 
ATOM     29  C   UNL     1     -70.923 -54.956 -29.837  0.00  0.00    +0.000 C 
BRANCH  28  30
ATOM     30  C   UNL     1     -70.993 -52.271 -30.351  0.00  0.00    +0.000 C 
BRANCH  30  31
ATOM     31  C   UNL     1     -71.025 -50.998 -30.597  0.00  0.00    +0.000 C 
ATOM     32  C   UNL     1     -72.287 -50.224 -30.367  0.00  0.00    +0.000 C 
BRANCH  31  34
ATOM     33  C   UNL     1     -68.861 -49.764 -31.410  0.00  0.00    +0.000 C 
ATOM     34  C   UNL     1     -69.853 -50.334 -31.037  0.00  0.00    +0.000 C 
BRANCH  33  36
ATOM     35  O   UNL     1     -66.904 -49.930 -32.757  0.00  0.00    +0.000 OA
ATOM     36  C   UNL     1     -67.663 -49.070 -31.859  0.00  0.00    +0.000 C 
ATOM     37  C   UNL     1     -67.474 -48.770 -33.361  0.00  0.00    +0.000 C 
ATOM     38  C   UNL     1     -66.827 -48.232 -30.828  0.00  0.00    +0.000 C 
ATOM     39  C   UNL     1     -66.485 -47.803 -33.712  0.00  0.00    +0.000 C 
ATOM     40  C   UNL     1     -65.884 -47.420 -31.599  0.00  0.00    +0.000 C 
ATOM     41  C   UNL     1     -65.587 -47.060 -32.927  0.00  0.00    +0.000 C 
ATOM     42  C   UNL     1     -68.520 -49.095 -34.429  0.00  0.00    +0.000 C 
ATOM     43  C   UNL     1     -66.147 -49.259 -29.893  0.00  0.00    +0.000 C 
ATOM     44  C   UNL     1     -67.854 -47.338 -30.086  0.00  0.00    +0.000 C 
BRANCH  41  45
ATOM     45  O   UNL     1     -65.198 -45.795 -33.249  0.00  0.00    +0.000 OA
ATOM     46  H   UNL     1     -65.871 -45.321 -33.771  0.00  0.00    +0.000 HD
ENDBRANCH  41  45
ENDBRANCH  33  36
ENDBRANCH  31  34
ENDBRANCH  30  31
ENDBRANCH  28  30
ENDBRANCH  26  29
ENDBRANCH  25  26
ENDBRANCH   1  25
TORSDOF 16
ENDMDL
MODEL 9
REMARK VINA RESULT:      -6.0     34.784     40.910
REMARK  Name = 448438_Violaxanthin.pdbqt.pdb
REMARK  16 active torsions:
REMARK  status: ('A' for Active; 'I' for Inactive)
REMARK    1  A    between atoms: C_1  and  C_5
REMARK    2  A    between atoms: C_2  and  C_27
REMARK    3  A    between atoms: C_3  and  C_5
REMARK    4  A    between atoms: C_3  and  C_7
REMARK    5  A    between atoms: C_6  and  C_10
REMARK    6  A    between atoms: C_8  and  C_10
REMARK    7  A    between atoms: C_8  and  C_12
REMARK    8  A    between atoms: C_11  and  C_14
REMARK    9  A    between atoms: C_19  and  O_23
REMARK   10  A    between atoms: C_25  and  C_27
REMARK   11  A    between atoms: C_25  and  C_29
REMARK   12  A    between atoms: C_28  and  C_32
REMARK   13  A    between atoms: C_30  and  C_32
REMARK   14  A    between atoms: C_30  and  C_34
REMARK   15  A    between atoms: C_33  and  C_36
REMARK   16  A    between atoms: C_41  and  O_45
REMARK                            x       y       z     vdW  Elec       q    Type
REMARK                         _______ _______ _______ _____ _____    ______ ____
ROOT
ATOM      1  C   UNL     1     -64.606 -49.307 -29.142  0.00  0.00    +0.000 C 
ATOM      2  C   UNL     1     -63.713 -49.496 -28.364  0.00  0.00    +0.000 C 
ENDROOT
BRANCH   2   3
ATOM      3  C   UNL     1     -62.571 -49.740 -27.370  0.00  0.00    +0.000 C 
BRANCH   3   4
ATOM      4  C   UNL     1     -61.605 -49.948 -26.532  0.00  0.00    +0.000 C 
ATOM      5  C   UNL     1     -60.433 -49.015 -26.499  0.00  0.00    +0.000 C 
BRANCH   4   7
ATOM      6  C   UNL     1     -61.641 -52.062 -24.991  0.00  0.00    +0.000 C 
ATOM      7  C   UNL     1     -61.625 -51.091 -25.699  0.00  0.00    +0.000 C 
BRANCH   6   8
ATOM      8  C   UNL     1     -61.661 -53.300 -24.087  0.00  0.00    +0.000 C 
BRANCH   8   9
ATOM      9  C   UNL     1     -61.679 -54.349 -23.324  0.00  0.00    +0.000 C 
ATOM     10  C   UNL     1     -61.323 -55.690 -23.889  0.00  0.00    +0.000 C 
BRANCH   9  12
ATOM     11  C   UNL     1     -62.108 -54.080 -20.754  0.00  0.00    +0.000 C 
ATOM     12  C   UNL     1     -61.915 -54.206 -21.934  0.00  0.00    +0.000 C 
BRANCH  11  14
ATOM     13  O   UNL     1     -62.396 -55.231 -18.694  0.00  0.00    +0.000 OA
ATOM     14  C   UNL     1     -62.317 -53.921 -19.323  0.00  0.00    +0.000 C 
ATOM     15  C   UNL     1     -61.256 -54.451 -18.335  0.00  0.00    +0.000 C 
ATOM     16  C   UNL     1     -63.324 -52.839 -18.807  0.00  0.00    +0.000 C 
ATOM     17  C   UNL     1     -61.331 -53.978 -16.991  0.00  0.00    +0.000 C 
ATOM     18  C   UNL     1     -63.130 -52.713 -17.355  0.00  0.00    +0.000 C 
ATOM     19  C   UNL     1     -62.238 -53.123 -16.344  0.00  0.00    +0.000 C 
ATOM     20  C   UNL     1     -59.929 -55.068 -18.787  0.00  0.00    +0.000 C 
ATOM     21  C   UNL     1     -62.933 -51.520 -19.516  0.00  0.00    +0.000 C 
ATOM     22  C   UNL     1     -64.736 -53.332 -19.188  0.00  0.00    +0.000 C 
BRANCH  19  23
ATOM     23  O   UNL     1     -62.634 -53.342 -15.060  0.00  0.00    +0.000 OA
ATOM     24  H   UNL     1     -63.190 -54.137 -14.967  0.00  0.00    +0.000 HD
ENDBRANCH  19  23
ENDBRANCH  11  14
ENDBRANCH   9  12
ENDBRANCH   8   9
ENDBRANCH   6   8
ENDBRANCH   4   7
ENDBRANCH   3   4
ENDBRANCH   2   3
BRANCH   1  25
ATOM     25  C   UNL     1     -65.749 -49.063 -30.136  0.00  0.00    +0.000 C 
BRANCH  25  26
ATOM     26  C   UNL     1     -66.714 -48.858 -30.976  0.00  0.00    +0.000 C 
ATOM     27  C   UNL     1     -66.530 -47.881 -32.099  0.00  0.00    +0.000 C 
BRANCH  26  29
ATOM     28  C   UNL     1     -68.958 -50.178 -30.736  0.00  0.00    +0.000 C 
ATOM     29  C   UNL     1     -67.927 -49.572 -30.848  0.00  0.00    +0.000 C 
BRANCH  28  30
ATOM     30  C   UNL     1     -70.273 -50.954 -30.586  0.00  0.00    +0.000 C 
BRANCH  30  31
ATOM     31  C   UNL     1     -71.387 -51.604 -30.459  0.00  0.00    +0.000 C 
ATOM     32  C   UNL     1     -72.684 -50.858 -30.388  0.00  0.00    +0.000 C 
BRANCH  31  34
ATOM     33  C   UNL     1     -71.371 -54.224 -30.412  0.00  0.00    +0.000 C 
ATOM     34  C   UNL     1     -71.380 -53.021 -30.436  0.00  0.00    +0.000 C 
BRANCH  33  36
ATOM     35  O   UNL     1     -70.711 -56.136 -29.155  0.00  0.00    +0.000 OA
ATOM     36  C   UNL     1     -71.359 -55.679 -30.376  0.00  0.00    +0.000 C 
ATOM     37  C   UNL     1     -72.106 -56.420 -29.248  0.00  0.00    +0.000 C 
ATOM     38  C   UNL     1     -71.017 -56.478 -31.684  0.00  0.00    +0.000 C 
ATOM     39  C   UNL     1     -72.361 -57.811 -29.440  0.00  0.00    +0.000 C 
ATOM     40  C   UNL     1     -71.373 -57.877 -31.438  0.00  0.00    +0.000 C 
ATOM     41  C   UNL     1     -72.025 -58.685 -30.487  0.00  0.00    +0.000 C 
ATOM     42  C   UNL     1     -72.941 -55.713 -28.177  0.00  0.00    +0.000 C 
ATOM     43  C   UNL     1     -69.510 -56.254 -31.943  0.00  0.00    +0.000 C 
ATOM     44  C   UNL     1     -71.911 -55.864 -32.793  0.00  0.00    +0.000 C 
BRANCH  41  45
ATOM     45  O   UNL     1     -72.821 -59.724 -30.865  0.00  0.00    +0.000 OA
ATOM     46  H   UNL     1     -73.755 -59.463 -30.953  0.00  0.00    +0.000 HD
ENDBRANCH  41  45
ENDBRANCH  33  36
ENDBRANCH  31  34
ENDBRANCH  30  31
ENDBRANCH  28  30
ENDBRANCH  26  29
ENDBRANCH  25  26
ENDBRANCH   1  25
TORSDOF 16
ENDMDL
