MODEL 1
REMARK VINA RESULT:      -6.9      0.000      0.000
REMARK  Name = 490561_Nocardiopsis.pdbqt.pdb
REMARK  3 active torsions:
REMARK  status: ('A' for Active; 'I' for Inactive)
REMARK    1  A    between atoms: C_7  and  O_32
REMARK    2  A    between atoms: C_7  and  C_35
REMARK    3  A    between atoms: C_35  and  O_36
REMARK                            x       y       z     vdW  Elec       q    Type
REMARK                         _______ _______ _______ _____ _____    ______ ____
ROOT
ATOM      1  O   UNL     1     -53.346 -58.301 -67.062  0.00  0.00    +0.000 OA
ATOM      2  O   UNL     1     -56.415 -56.933 -60.321  0.00  0.00    +0.000 OA
ATOM      3  N   UNL     1     -55.440 -59.281 -66.563  0.00  0.00    +0.000 N 
ATOM      4  N   UNL     1     -54.121 -56.841 -65.416  0.00  0.00    +0.000 N 
ATOM      5  N   UNL     1     -57.575 -58.828 -60.999  0.00  0.00    +0.000 N 
ATOM      6  C   UNL     1     -54.566 -58.849 -67.674  0.00  0.00    +0.000 C 
ATOM      7  C   UNL     1     -55.161 -57.632 -68.504  0.00  0.00    +0.000 C 
ATOM      8  C   UNL     1     -53.692 -56.981 -66.724  0.00  0.00    +0.000 C 
ATOM      9  C   UNL     1     -54.577 -56.536 -67.736  0.00  0.00    +0.000 C 
ATOM     10  C   UNL     1     -55.558 -58.812 -65.279  0.00  0.00    +0.000 A 
ATOM     11  C   UNL     1     -54.938 -57.689 -64.731  0.00  0.00    +0.000 A 
ATOM     12  C   UNL     1     -56.448 -59.440 -64.404  0.00  0.00    +0.000 A 
ATOM     13  C   UNL     1     -55.306 -57.377 -63.418  0.00  0.00    +0.000 A 
ATOM     14  C   UNL     1     -54.082 -60.055 -68.546  0.00  0.00    +0.000 C 
ATOM     15  C   UNL     1     -56.434 -60.291 -66.540  0.00  0.00    +0.000 A 
ATOM     16  C   UNL     1     -53.964 -55.818 -64.463  0.00  0.00    +0.000 A 
ATOM     17  C   UNL     1     -57.030 -60.419 -65.230  0.00  0.00    +0.000 A 
ATOM     18  C   UNL     1     -56.815 -59.161 -63.081  0.00  0.00    +0.000 A 
ATOM     19  C   UNL     1     -56.186 -58.011 -62.517  0.00  0.00    +0.000 A 
ATOM     20  C   UNL     1     -54.654 -56.137 -63.233  0.00  0.00    +0.000 A 
ATOM     21  C   UNL     1     -57.737 -59.677 -62.036  0.00  0.00    +0.000 C 
ATOM     22  C   UNL     1     -56.872 -61.114 -67.591  0.00  0.00    +0.000 A 
ATOM     23  C   UNL     1     -56.662 -57.776 -61.171  0.00  0.00    +0.000 C 
ATOM     24  C   UNL     1     -53.241 -54.622 -64.593  0.00  0.00    +0.000 A 
ATOM     25  C   UNL     1     -58.033 -61.390 -65.039  0.00  0.00    +0.000 A 
ATOM     26  C   UNL     1     -54.584 -55.205 -62.178  0.00  0.00    +0.000 A 
ATOM     27  C   UNL     1     -57.867 -62.062 -67.352  0.00  0.00    +0.000 A 
ATOM     28  C   UNL     1     -58.436 -62.205 -66.097  0.00  0.00    +0.000 A 
ATOM     29  C   UNL     1     -53.201 -53.740 -63.513  0.00  0.00    +0.000 A 
ATOM     30  C   UNL     1     -53.859 -54.024 -62.325  0.00  0.00    +0.000 A 
ATOM     31  H   UNL     1     -58.079 -58.927 -60.131  0.00  0.00    +0.000 HD
ENDROOT
BRANCH   7  32
ATOM     32  O   UNL     1     -56.592 -57.516 -68.465  0.00  0.00    +0.000 OA
ATOM     33  H   UNL     1     -56.831 -57.157 -67.583  0.00  0.00    +0.000 HD
ENDBRANCH   7  32
BRANCH   7  35
ATOM     34  O   UNL     1     -55.308 -58.208 -70.830  0.00  0.00    +0.000 OA
ATOM     35  C   UNL     1     -54.666 -57.633 -69.949  0.00  0.00    +0.000 C 
BRANCH  35  36
ATOM     36  O   UNL     1     -53.519 -56.901 -70.091  0.00  0.00    +0.000 OA
ATOM     37  C   UNL     1     -52.365 -57.575 -70.514  0.00  0.00    +0.000 C 
ENDBRANCH  35  36
ENDBRANCH   7  35
TORSDOF 3
ENDMDL
MODEL 2
REMARK VINA RESULT:      -6.4     26.240     31.127
REMARK  Name = 490561_Nocardiopsis.pdbqt.pdb
REMARK  3 active torsions:
REMARK  status: ('A' for Active; 'I' for Inactive)
REMARK    1  A    between atoms: C_7  and  O_32
REMARK    2  A    between atoms: C_7  and  C_35
REMARK    3  A    between atoms: C_35  and  O_36
REMARK                            x       y       z     vdW  Elec       q    Type
REMARK                         _______ _______ _______ _____ _____    ______ ____
ROOT
ATOM      1  O   UNL     1     -69.490 -57.917 -36.074  0.00  0.00    +0.000 OA
ATOM      2  O   UNL     1     -66.551 -58.660 -42.969  0.00  0.00    +0.000 OA
ATOM      3  N   UNL     1     -68.382 -59.936 -36.609  0.00  0.00    +0.000 N 
ATOM      4  N   UNL     1     -68.098 -57.197 -37.802  0.00  0.00    +0.000 N 
ATOM      5  N   UNL     1     -66.673 -60.868 -42.259  0.00  0.00    +0.000 N 
ATOM      6  C   UNL     1     -68.784 -59.065 -35.485  0.00  0.00    +0.000 C 
ATOM      7  C   UNL     1     -67.551 -58.412 -34.724  0.00  0.00    +0.000 C 
ATOM      8  C   UNL     1     -68.461 -57.047 -36.475  0.00  0.00    +0.000 C 
ATOM      9  C   UNL     1     -67.430 -57.189 -35.513  0.00  0.00    +0.000 C 
ATOM     10  C   UNL     1     -68.081 -59.637 -37.914  0.00  0.00    +0.000 A 
ATOM     11  C   UNL     1     -67.962 -58.369 -38.482  0.00  0.00    +0.000 A 
ATOM     12  C   UNL     1     -67.767 -60.675 -38.795  0.00  0.00    +0.000 A 
ATOM     13  C   UNL     1     -67.550 -58.343 -39.819  0.00  0.00    +0.000 A 
ATOM     14  C   UNL     1     -69.832 -59.755 -34.550  0.00  0.00    +0.000 C 
ATOM     15  C   UNL     1     -68.162 -61.336 -36.628  0.00  0.00    +0.000 A 
ATOM     16  C   UNL     1     -67.682 -56.283 -38.788  0.00  0.00    +0.000 A 
ATOM     17  C   UNL     1     -67.819 -61.801 -37.953  0.00  0.00    +0.000 A 
ATOM     18  C   UNL     1     -67.375 -60.676 -40.141  0.00  0.00    +0.000 A 
ATOM     19  C   UNL     1     -67.248 -59.380 -40.725  0.00  0.00    +0.000 A 
ATOM     20  C   UNL     1     -67.370 -56.958 -40.029  0.00  0.00    +0.000 A 
ATOM     21  C   UNL     1     -66.979 -61.642 -41.196  0.00  0.00    +0.000 C 
ATOM     22  C   UNL     1     -68.229 -62.249 -35.563  0.00  0.00    +0.000 A 
ATOM     23  C   UNL     1     -66.795 -59.480 -42.096  0.00  0.00    +0.000 C 
ATOM     24  C   UNL     1     -67.569 -54.889 -38.678  0.00  0.00    +0.000 A 
ATOM     25  C   UNL     1     -67.577 -63.176 -38.142  0.00  0.00    +0.000 A 
ATOM     26  C   UNL     1     -66.941 -56.170 -41.116  0.00  0.00    +0.000 A 
ATOM     27  C   UNL     1     -67.982 -63.601 -35.800  0.00  0.00    +0.000 A 
ATOM     28  C   UNL     1     -67.667 -64.062 -37.068  0.00  0.00    +0.000 A 
ATOM     29  C   UNL     1     -67.146 -54.160 -39.790  0.00  0.00    +0.000 A 
ATOM     30  C   UNL     1     -66.837 -54.786 -40.988  0.00  0.00    +0.000 A 
ATOM     31  H   UNL     1     -66.365 -61.252 -43.140  0.00  0.00    +0.000 HD
ENDROOT
BRANCH   7  32
ATOM     32  O   UNL     1     -66.324 -59.149 -34.820  0.00  0.00    +0.000 OA
ATOM     33  H   UNL     1     -66.438 -59.974 -34.298  0.00  0.00    +0.000 HD
ENDBRANCH   7  32
BRANCH   7  35
ATOM     34  O   UNL     1     -67.373 -58.773 -32.358  0.00  0.00    +0.000 OA
ATOM     35  C   UNL     1     -67.880 -58.109 -33.264  0.00  0.00    +0.000 C 
BRANCH  35  36
ATOM     36  O   UNL     1     -68.715 -57.032 -33.146  0.00  0.00    +0.000 OA
ATOM     37  C   UNL     1     -69.444 -56.901 -31.956  0.00  0.00    +0.000 C 
ENDBRANCH  35  36
ENDBRANCH   7  35
TORSDOF 3
ENDMDL
MODEL 3
REMARK VINA RESULT:      -6.3     12.519     16.687
REMARK  Name = 490561_Nocardiopsis.pdbqt.pdb
REMARK  3 active torsions:
REMARK  status: ('A' for Active; 'I' for Inactive)
REMARK    1  A    between atoms: C_7  and  O_32
REMARK    2  A    between atoms: C_7  and  C_35
REMARK    3  A    between atoms: C_35  and  O_36
REMARK                            x       y       z     vdW  Elec       q    Type
REMARK                         _______ _______ _______ _____ _____    ______ ____
ROOT
ATOM      1  O   UNL     1     -48.541 -59.424 -79.033  0.00  0.00    +0.000 OA
ATOM      2  O   UNL     1     -48.244 -66.408 -76.229  0.00  0.00    +0.000 OA
ATOM      3  N   UNL     1     -47.797 -61.168 -80.445  0.00  0.00    +0.000 N 
ATOM      4  N   UNL     1     -49.531 -61.265 -77.997  0.00  0.00    +0.000 N 
ATOM      5  N   UNL     1     -46.854 -66.576 -78.082  0.00  0.00    +0.000 N 
ATOM      6  C   UNL     1     -48.405 -59.821 -80.443  0.00  0.00    +0.000 C 
ATOM      7  C   UNL     1     -49.896 -59.805 -80.994  0.00  0.00    +0.000 C 
ATOM      8  C   UNL     1     -49.732 -60.042 -78.613  0.00  0.00    +0.000 C 
ATOM      9  C   UNL     1     -50.598 -60.028 -79.733  0.00  0.00    +0.000 C 
ATOM     10  C   UNL     1     -47.863 -62.185 -79.526  0.00  0.00    +0.000 A 
ATOM     11  C   UNL     1     -48.653 -62.233 -78.378  0.00  0.00    +0.000 A 
ATOM     12  C   UNL     1     -47.144 -63.361 -79.759  0.00  0.00    +0.000 A 
ATOM     13  C   UNL     1     -48.601 -63.434 -77.661  0.00  0.00    +0.000 A 
ATOM     14  C   UNL     1     -47.464 -58.748 -81.083  0.00  0.00    +0.000 C 
ATOM     15  C   UNL     1     -46.997 -61.792 -81.435  0.00  0.00    +0.000 A 
ATOM     16  C   UNL     1     -50.175 -61.914 -76.928  0.00  0.00    +0.000 A 
ATOM     17  C   UNL     1     -46.569 -63.108 -81.018  0.00  0.00    +0.000 A 
ATOM     18  C   UNL     1     -47.059 -64.564 -79.046  0.00  0.00    +0.000 A 
ATOM     19  C   UNL     1     -47.868 -64.620 -77.872  0.00  0.00    +0.000 A 
ATOM     20  C   UNL     1     -49.607 -63.223 -76.691  0.00  0.00    +0.000 A 
ATOM     21  C   UNL     1     -46.400 -65.890 -79.152  0.00  0.00    +0.000 C 
ATOM     22  C   UNL     1     -46.613 -61.298 -82.693  0.00  0.00    +0.000 A 
ATOM     23  C   UNL     1     -47.752 -65.912 -77.232  0.00  0.00    +0.000 C 
ATOM     24  C   UNL     1     -51.224 -61.430 -76.132  0.00  0.00    +0.000 A 
ATOM     25  C   UNL     1     -45.756 -63.859 -81.891  0.00  0.00    +0.000 A 
ATOM     26  C   UNL     1     -50.148 -63.995 -75.644  0.00  0.00    +0.000 A 
ATOM     27  C   UNL     1     -45.806 -62.078 -83.520  0.00  0.00    +0.000 A 
ATOM     28  C   UNL     1     -45.377 -63.336 -83.127  0.00  0.00    +0.000 A 
ATOM     29  C   UNL     1     -51.716 -62.236 -75.105  0.00  0.00    +0.000 A 
ATOM     30  C   UNL     1     -51.189 -63.496 -74.863  0.00  0.00    +0.000 A 
ATOM     31  H   UNL     1     -46.575 -67.525 -77.885  0.00  0.00    +0.000 HD
ENDROOT
BRANCH   7  32
ATOM     32  O   UNL     1     -50.216 -60.871 -81.900  0.00  0.00    +0.000 OA
ATOM     33  H   UNL     1     -51.168 -60.784 -82.128  0.00  0.00    +0.000 HD
ENDBRANCH   7  32
BRANCH   7  35
ATOM     34  O   UNL     1     -50.413 -57.463 -80.893  0.00  0.00    +0.000 OA
ATOM     35  C   UNL     1     -50.259 -58.454 -81.609  0.00  0.00    +0.000 C 
BRANCH  35  36
ATOM     36  O   UNL     1     -50.320 -58.520 -82.973  0.00  0.00    +0.000 OA
ATOM     37  C   UNL     1     -49.932 -57.384 -83.698  0.00  0.00    +0.000 C 
ENDBRANCH  35  36
ENDBRANCH   7  35
TORSDOF 3
ENDMDL
MODEL 4
REMARK VINA RESULT:      -6.3     15.957     17.290
REMARK  Name = 490561_Nocardiopsis.pdbqt.pdb
REMARK  3 active torsions:
REMARK  status: ('A' for Active; 'I' for Inactive)
REMARK    1  A    between atoms: C_7  and  O_32
REMARK    2  A    between atoms: C_7  and  C_35
REMARK    3  A    between atoms: C_35  and  O_36
REMARK                            x       y       z     vdW  Elec       q    Type
REMARK                         _______ _______ _______ _____ _____    ______ ____
ROOT
ATOM      1  O   UNL     1     -62.538 -60.011 -78.794  0.00  0.00    +0.000 OA
ATOM      2  O   UNL     1     -62.843 -52.659 -80.404  0.00  0.00    +0.000 OA
ATOM      3  N   UNL     1     -64.663 -58.997 -79.007  0.00  0.00    +0.000 N 
ATOM      4  N   UNL     1     -62.005 -58.178 -80.135  0.00  0.00    +0.000 N 
ATOM      5  N   UNL     1     -64.971 -53.054 -79.563  0.00  0.00    +0.000 N 
ATOM      6  C   UNL     1     -63.951 -60.289 -79.091  0.00  0.00    +0.000 C 
ATOM      7  C   UNL     1     -63.924 -60.896 -80.560  0.00  0.00    +0.000 C 
ATOM      8  C   UNL     1     -62.010 -59.557 -80.015  0.00  0.00    +0.000 C 
ATOM      9  C   UNL     1     -62.684 -60.282 -81.028  0.00  0.00    +0.000 C 
ATOM     10  C   UNL     1     -64.230 -57.716 -79.239  0.00  0.00    +0.000 A 
ATOM     11  C   UNL     1     -62.992 -57.323 -79.748  0.00  0.00    +0.000 A 
ATOM     12  C   UNL     1     -65.114 -56.651 -79.040  0.00  0.00    +0.000 A 
ATOM     13  C   UNL     1     -62.841 -55.951 -79.977  0.00  0.00    +0.000 A 
ATOM     14  C   UNL     1     -64.415 -61.291 -77.983  0.00  0.00    +0.000 C 
ATOM     15  C   UNL     1     -66.020 -58.736 -78.692  0.00  0.00    +0.000 A 
ATOM     16  C   UNL     1     -61.111 -57.274 -80.738  0.00  0.00    +0.000 A 
ATOM     17  C   UNL     1     -66.299 -57.318 -78.678  0.00  0.00    +0.000 A 
ATOM     18  C   UNL     1     -64.979 -55.271 -79.240  0.00  0.00    +0.000 A 
ATOM     19  C   UNL     1     -63.715 -54.865 -79.764  0.00  0.00    +0.000 A 
ATOM     20  C   UNL     1     -61.588 -55.913 -80.628  0.00  0.00    +0.000 A 
ATOM     21  C   UNL     1     -65.790 -54.033 -79.123  0.00  0.00    +0.000 C 
ATOM     22  C   UNL     1     -67.050 -59.653 -78.422  0.00  0.00    +0.000 A 
ATOM     23  C   UNL     1     -63.687 -53.435 -79.981  0.00  0.00    +0.000 C 
ATOM     24  C   UNL     1     -59.891 -57.560 -81.368  0.00  0.00    +0.000 A 
ATOM     25  C   UNL     1     -67.607 -56.893 -78.372  0.00  0.00    +0.000 A 
ATOM     26  C   UNL     1     -60.794 -54.891 -81.184  0.00  0.00    +0.000 A 
ATOM     27  C   UNL     1     -68.328 -59.183 -78.122  0.00  0.00    +0.000 A 
ATOM     28  C   UNL     1     -68.605 -57.826 -78.091  0.00  0.00    +0.000 A 
ATOM     29  C   UNL     1     -59.143 -56.507 -81.893  0.00  0.00    +0.000 A 
ATOM     30  C   UNL     1     -59.583 -55.194 -81.804  0.00  0.00    +0.000 A 
ATOM     31  H   UNL     1     -65.252 -52.086 -79.600  0.00  0.00    +0.000 HD
ENDROOT
BRANCH   7  32
ATOM     32  O   UNL     1     -65.001 -60.471 -81.409  0.00  0.00    +0.000 OA
ATOM     33  H   UNL     1     -64.650 -59.765 -81.994  0.00  0.00    +0.000 HD
ENDBRANCH   7  32
BRANCH   7  35
ATOM     34  O   UNL     1     -62.764 -62.975 -80.254  0.00  0.00    +0.000 OA
ATOM     35  C   UNL     1     -63.826 -62.420 -80.543  0.00  0.00    +0.000 C 
BRANCH  35  36
ATOM     36  O   UNL     1     -65.028 -63.007 -80.822  0.00  0.00    +0.000 OA
ATOM     37  C   UNL     1     -65.313 -64.233 -80.206  0.00  0.00    +0.000 C 
ENDBRANCH  35  36
ENDBRANCH   7  35
TORSDOF 3
ENDMDL
MODEL 5
REMARK VINA RESULT:      -6.2      2.456      5.163
REMARK  Name = 490561_Nocardiopsis.pdbqt.pdb
REMARK  3 active torsions:
REMARK  status: ('A' for Active; 'I' for Inactive)
REMARK    1  A    between atoms: C_7  and  O_32
REMARK    2  A    between atoms: C_7  and  C_35
REMARK    3  A    between atoms: C_35  and  O_36
REMARK                            x       y       z     vdW  Elec       q    Type
REMARK                         _______ _______ _______ _____ _____    ______ ____
ROOT
ATOM      1  O   UNL     1     -52.838 -57.230 -63.318  0.00  0.00    +0.000 OA
ATOM      2  O   UNL     1     -59.481 -60.774 -63.547  0.00  0.00    +0.000 OA
ATOM      3  N   UNL     1     -54.057 -57.199 -65.344  0.00  0.00    +0.000 N 
ATOM      4  N   UNL     1     -55.001 -57.593 -62.523  0.00  0.00    +0.000 N 
ATOM      5  N   UNL     1     -58.962 -60.582 -65.803  0.00  0.00    +0.000 N 
ATOM      6  C   UNL     1     -53.025 -56.479 -64.569  0.00  0.00    +0.000 C 
ATOM      7  C   UNL     1     -53.494 -55.038 -64.087  0.00  0.00    +0.000 C 
ATOM      8  C   UNL     1     -53.880 -56.783 -62.487  0.00  0.00    +0.000 C 
ATOM      9  C   UNL     1     -54.072 -55.415 -62.800  0.00  0.00    +0.000 C 
ATOM     10  C   UNL     1     -55.111 -57.974 -64.934  0.00  0.00    +0.000 A 
ATOM     11  C   UNL     1     -55.549 -58.177 -63.624  0.00  0.00    +0.000 A 
ATOM     12  C   UNL     1     -55.923 -58.584 -65.894  0.00  0.00    +0.000 A 
ATOM     13  C   UNL     1     -56.713 -58.942 -63.489  0.00  0.00    +0.000 A 
ATOM     14  C   UNL     1     -51.630 -56.505 -65.276  0.00  0.00    +0.000 C 
ATOM     15  C   UNL     1     -54.255 -57.250 -66.747  0.00  0.00    +0.000 A 
ATOM     16  C   UNL     1     -55.937 -57.975 -61.544  0.00  0.00    +0.000 A 
ATOM     17  C   UNL     1     -55.363 -58.111 -67.094  0.00  0.00    +0.000 A 
ATOM     18  C   UNL     1     -57.077 -59.372 -65.782  0.00  0.00    +0.000 A 
ATOM     19  C   UNL     1     -57.530 -59.579 -64.445  0.00  0.00    +0.000 A 
ATOM     20  C   UNL     1     -56.970 -58.816 -62.106  0.00  0.00    +0.000 A 
ATOM     21  C   UNL     1     -58.061 -60.056 -66.659  0.00  0.00    +0.000 C 
ATOM     22  C   UNL     1     -53.540 -56.589 -67.759  0.00  0.00    +0.000 A 
ATOM     23  C   UNL     1     -58.748 -60.359 -64.434  0.00  0.00    +0.000 C 
ATOM     24  C   UNL     1     -55.940 -57.645 -60.180  0.00  0.00    +0.000 A 
ATOM     25  C   UNL     1     -55.684 -58.277 -68.457  0.00  0.00    +0.000 A 
ATOM     26  C   UNL     1     -57.981 -59.283 -61.242  0.00  0.00    +0.000 A 
ATOM     27  C   UNL     1     -53.896 -56.786 -69.093  0.00  0.00    +0.000 A 
ATOM     28  C   UNL     1     -54.946 -57.620 -69.441  0.00  0.00    +0.000 A 
ATOM     29  C   UNL     1     -56.962 -58.142 -59.371  0.00  0.00    +0.000 A 
ATOM     30  C   UNL     1     -57.966 -58.947 -59.890  0.00  0.00    +0.000 A 
ATOM     31  H   UNL     1     -59.761 -61.113 -66.114  0.00  0.00    +0.000 HD
ENDROOT
BRANCH   7  32
ATOM     32  O   UNL     1     -54.513 -54.433 -64.896  0.00  0.00    +0.000 OA
ATOM     33  H   UNL     1     -55.373 -54.814 -64.614  0.00  0.00    +0.000 HD
ENDBRANCH   7  32
BRANCH   7  35
ATOM     34  O   UNL     1     -51.620 -54.125 -62.896  0.00  0.00    +0.000 OA
ATOM     35  C   UNL     1     -52.312 -54.085 -63.915  0.00  0.00    +0.000 C 
BRANCH  35  36
ATOM     36  O   UNL     1     -52.138 -53.292 -65.015  0.00  0.00    +0.000 OA
ATOM     37  C   UNL     1     -51.887 -51.930 -64.802  0.00  0.00    +0.000 C 
ENDBRANCH  35  36
ENDBRANCH   7  35
TORSDOF 3
ENDMDL
MODEL 6
REMARK VINA RESULT:      -6.2     32.655     37.407
REMARK  Name = 490561_Nocardiopsis.pdbqt.pdb
REMARK  3 active torsions:
REMARK  status: ('A' for Active; 'I' for Inactive)
REMARK    1  A    between atoms: C_7  and  O_32
REMARK    2  A    between atoms: C_7  and  C_35
REMARK    3  A    between atoms: C_35  and  O_36
REMARK                            x       y       z     vdW  Elec       q    Type
REMARK                         _______ _______ _______ _____ _____    ______ ____
ROOT
ATOM      1  O   UNL     1     -70.618 -58.963 -34.285  0.00  0.00    +0.000 OA
ATOM      2  O   UNL     1     -73.248 -62.460 -28.154  0.00  0.00    +0.000 OA
ATOM      3  N   UNL     1     -70.372 -57.893 -32.191  0.00  0.00    +0.000 N 
ATOM      4  N   UNL     1     -70.715 -60.801 -32.851  0.00  0.00    +0.000 N 
ATOM      5  N   UNL     1     -73.065 -60.266 -27.413  0.00  0.00    +0.000 N 
ATOM      6  C   UNL     1     -69.815 -57.968 -33.558  0.00  0.00    +0.000 C 
ATOM      7  C   UNL     1     -68.339 -58.556 -33.603  0.00  0.00    +0.000 C 
ATOM      8  C   UNL     1     -70.060 -60.198 -33.911  0.00  0.00    +0.000 C 
ATOM      9  C   UNL     1     -68.671 -59.970 -33.755  0.00  0.00    +0.000 C 
ATOM     10  C   UNL     1     -71.012 -58.837 -31.429  0.00  0.00    +0.000 A 
ATOM     11  C   UNL     1     -71.191 -60.186 -31.733  0.00  0.00    +0.000 A 
ATOM     12  C   UNL     1     -71.484 -58.483 -30.161  0.00  0.00    +0.000 A 
ATOM     13  C   UNL     1     -71.799 -60.954 -30.734  0.00  0.00    +0.000 A 
ATOM     14  C   UNL     1     -70.006 -56.631 -34.347  0.00  0.00    +0.000 C 
ATOM     15  C   UNL     1     -70.359 -56.813 -31.273  0.00  0.00    +0.000 A 
ATOM     16  C   UNL     1     -70.996 -62.144 -32.540  0.00  0.00    +0.000 A 
ATOM     17  C   UNL     1     -71.057 -57.147 -30.052  0.00  0.00    +0.000 A 
ATOM     18  C   UNL     1     -72.115 -59.227 -29.155  0.00  0.00    +0.000 A 
ATOM     19  C   UNL     1     -72.297 -60.609 -29.460  0.00  0.00    +0.000 A 
ATOM     20  C   UNL     1     -71.678 -62.256 -31.270  0.00  0.00    +0.000 A 
ATOM     21  C   UNL     1     -72.639 -59.039 -27.779  0.00  0.00    +0.000 C 
ATOM     22  C   UNL     1     -69.770 -55.546 -31.417  0.00  0.00    +0.000 A 
ATOM     23  C   UNL     1     -72.910 -61.301 -28.348  0.00  0.00    +0.000 C 
ATOM     24  C   UNL     1     -70.705 -63.284 -33.304  0.00  0.00    +0.000 A 
ATOM     25  C   UNL     1     -71.142 -56.173 -29.037  0.00  0.00    +0.000 A 
ATOM     26  C   UNL     1     -72.031 -63.545 -30.824  0.00  0.00    +0.000 A 
ATOM     27  C   UNL     1     -69.883 -54.615 -30.385  0.00  0.00    +0.000 A 
ATOM     28  C   UNL     1     -70.562 -54.917 -29.215  0.00  0.00    +0.000 A 
ATOM     29  C   UNL     1     -71.085 -64.534 -32.816  0.00  0.00    +0.000 A 
ATOM     30  C   UNL     1     -71.736 -64.666 -31.598  0.00  0.00    +0.000 A 
ATOM     31  H   UNL     1     -73.478 -60.453 -26.512  0.00  0.00    +0.000 HD
ENDROOT
BRANCH   7  32
ATOM     32  O   UNL     1     -67.584 -58.383 -32.395  0.00  0.00    +0.000 OA
ATOM     33  H   UNL     1     -68.099 -58.794 -31.667  0.00  0.00    +0.000 HD
ENDBRANCH   7  32
BRANCH   7  35
ATOM     34  O   UNL     1     -66.856 -57.020 -34.700  0.00  0.00    +0.000 OA
ATOM     35  C   UNL     1     -67.555 -58.030 -34.804  0.00  0.00    +0.000 C 
BRANCH  35  36
ATOM     36  O   UNL     1     -67.705 -58.835 -35.898  0.00  0.00    +0.000 OA
ATOM     37  C   UNL     1     -68.009 -58.222 -37.122  0.00  0.00    +0.000 C 
ENDBRANCH  35  36
ENDBRANCH   7  35
TORSDOF 3
ENDMDL
MODEL 7
REMARK VINA RESULT:      -6.1     16.086     17.481
REMARK  Name = 490561_Nocardiopsis.pdbqt.pdb
REMARK  3 active torsions:
REMARK  status: ('A' for Active; 'I' for Inactive)
REMARK    1  A    between atoms: C_7  and  O_32
REMARK    2  A    between atoms: C_7  and  C_35
REMARK    3  A    between atoms: C_35  and  O_36
REMARK                            x       y       z     vdW  Elec       q    Type
REMARK                         _______ _______ _______ _____ _____    ______ ____
ROOT
ATOM      1  O   UNL     1     -62.344 -59.179 -79.137  0.00  0.00    +0.000 OA
ATOM      2  O   UNL     1     -60.561 -52.169 -81.235  0.00  0.00    +0.000 OA
ATOM      3  N   UNL     1     -64.101 -57.650 -79.546  0.00  0.00    +0.000 N 
ATOM      4  N   UNL     1     -61.276 -57.670 -80.559  0.00  0.00    +0.000 N 
ATOM      5  N   UNL     1     -62.749 -51.908 -80.503  0.00  0.00    +0.000 N 
ATOM      6  C   UNL     1     -63.766 -59.089 -79.503  0.00  0.00    +0.000 C 
ATOM      7  C   UNL     1     -63.845 -59.794 -80.925  0.00  0.00    +0.000 C 
ATOM      8  C   UNL     1     -61.662 -58.982 -80.351  0.00  0.00    +0.000 C 
ATOM      9  C   UNL     1     -62.466 -59.577 -81.354  0.00  0.00    +0.000 C 
ATOM     10  C   UNL     1     -63.325 -56.555 -79.833  0.00  0.00    +0.000 A 
ATOM     11  C   UNL     1     -62.006 -56.553 -80.289  0.00  0.00    +0.000 A 
ATOM     12  C   UNL     1     -63.892 -55.280 -79.759  0.00  0.00    +0.000 A 
ATOM     13  C   UNL     1     -61.477 -55.295 -80.597  0.00  0.00    +0.000 A 
ATOM     14  C   UNL     1     -64.532 -59.838 -78.363  0.00  0.00    +0.000 C 
ATOM     15  C   UNL     1     -65.347 -57.009 -79.333  0.00  0.00    +0.000 A 
ATOM     16  C   UNL     1     -60.144 -57.091 -81.163  0.00  0.00    +0.000 A 
ATOM     17  C   UNL     1     -65.227 -55.572 -79.428  0.00  0.00    +0.000 A 
ATOM     18  C   UNL     1     -63.376 -54.008 -80.039  0.00  0.00    +0.000 A 
ATOM     19  C   UNL     1     -62.029 -54.000 -80.509  0.00  0.00    +0.000 A 
ATOM     20  C   UNL     1     -60.235 -55.648 -81.171  0.00  0.00    +0.000 A 
ATOM     21  C   UNL     1     -63.822 -52.591 -80.051  0.00  0.00    +0.000 C 
ATOM     22  C   UNL     1     -66.598 -57.591 -79.067  0.00  0.00    +0.000 A 
ATOM     23  C   UNL     1     -61.602 -52.652 -80.816  0.00  0.00    +0.000 C 
ATOM     24  C   UNL     1     -59.023 -57.744 -81.697  0.00  0.00    +0.000 A 
ATOM     25  C   UNL     1     -66.381 -54.787 -79.231  0.00  0.00    +0.000 A 
ATOM     26  C   UNL     1     -59.169 -54.924 -81.742  0.00  0.00    +0.000 A 
ATOM     27  C   UNL     1     -67.710 -56.771 -78.878  0.00  0.00    +0.000 A 
ATOM     28  C   UNL     1     -67.606 -55.391 -78.952  0.00  0.00    +0.000 A 
ATOM     29  C   UNL     1     -57.995 -56.976 -82.243  0.00  0.00    +0.000 A 
ATOM     30  C   UNL     1     -58.063 -55.591 -82.266  0.00  0.00    +0.000 A 
ATOM     31  H   UNL     1     -62.753 -50.905 -80.620  0.00  0.00    +0.000 HD
ENDROOT
BRANCH   7  32
ATOM     32  O   UNL     1     -64.729 -59.164 -81.863  0.00  0.00    +0.000 OA
ATOM     33  H   UNL     1     -65.644 -59.423 -81.621  0.00  0.00    +0.000 HD
ENDBRANCH   7  32
BRANCH   7  35
ATOM     34  O   UNL     1     -65.323 -61.686 -80.957  0.00  0.00    +0.000 OA
ATOM     35  C   UNL     1     -64.168 -61.282 -80.803  0.00  0.00    +0.000 C 
BRANCH  35  36
ATOM     36  O   UNL     1     -63.045 -62.027 -80.573  0.00  0.00    +0.000 OA
ATOM     37  C   UNL     1     -62.967 -63.291 -81.174  0.00  0.00    +0.000 C 
ENDBRANCH  35  36
ENDBRANCH   7  35
TORSDOF 3
ENDMDL
MODEL 8
REMARK VINA RESULT:      -6.1     16.264     17.334
REMARK  Name = 490561_Nocardiopsis.pdbqt.pdb
REMARK  3 active torsions:
REMARK  status: ('A' for Active; 'I' for Inactive)
REMARK    1  A    between atoms: C_7  and  O_32
REMARK    2  A    between atoms: C_7  and  C_35
REMARK    3  A    between atoms: C_35  and  O_36
REMARK                            x       y       z     vdW  Elec       q    Type
REMARK                         _______ _______ _______ _____ _____    ______ ____
ROOT
ATOM      1  O   UNL     1     -61.102 -51.353 -81.652  0.00  0.00    +0.000 OA
ATOM      2  O   UNL     1     -58.234 -58.317 -81.626  0.00  0.00    +0.000 OA
ATOM      3  N   UNL     1     -62.259 -53.038 -80.463  0.00  0.00    +0.000 N 
ATOM      4  N   UNL     1     -59.367 -52.858 -81.245  0.00  0.00    +0.000 N 
ATOM      5  N   UNL     1     -60.437 -58.704 -81.001  0.00  0.00    +0.000 N 
ATOM      6  C   UNL     1     -62.052 -51.577 -80.551  0.00  0.00    +0.000 C 
ATOM      7  C   UNL     1     -61.320 -50.969 -79.279  0.00  0.00    +0.000 C 
ATOM      8  C   UNL     1     -59.841 -51.570 -81.069  0.00  0.00    +0.000 C 
ATOM      9  C   UNL     1     -59.939 -51.103 -79.735  0.00  0.00    +0.000 C 
ATOM     10  C   UNL     1     -61.428 -54.083 -80.776  0.00  0.00    +0.000 A 
ATOM     11  C   UNL     1     -60.087 -54.010 -81.155  0.00  0.00    +0.000 A 
ATOM     12  C   UNL     1     -61.897 -55.392 -80.635  0.00  0.00    +0.000 A 
ATOM     13  C   UNL     1     -59.441 -55.239 -81.326  0.00  0.00    +0.000 A 
ATOM     14  C   UNL     1     -63.355 -50.822 -80.974  0.00  0.00    +0.000 C 
ATOM     15  C   UNL     1     -63.382 -53.760 -79.988  0.00  0.00    +0.000 A 
ATOM     16  C   UNL     1     -58.078 -53.382 -81.452  0.00  0.00    +0.000 A 
ATOM     17  C   UNL     1     -63.188 -55.186 -80.116  0.00  0.00    +0.000 A 
ATOM     18  C   UNL     1     -61.278 -56.635 -80.822  0.00  0.00    +0.000 A 
ATOM     19  C   UNL     1     -59.905 -56.565 -81.207  0.00  0.00    +0.000 A 
ATOM     20  C   UNL     1     -58.106 -54.826 -81.531  0.00  0.00    +0.000 A 
ATOM     21  C   UNL     1     -61.594 -58.080 -80.693  0.00  0.00    +0.000 C 
ATOM     22  C   UNL     1     -64.575 -53.264 -79.436  0.00  0.00    +0.000 A 
ATOM     23  C   UNL     1     -59.341 -57.892 -81.328  0.00  0.00    +0.000 C 
ATOM     24  C   UNL     1     -56.873 -52.677 -81.592  0.00  0.00    +0.000 A 
ATOM     25  C   UNL     1     -64.222 -56.046 -79.694  0.00  0.00    +0.000 A 
ATOM     26  C   UNL     1     -56.885 -55.497 -81.743  0.00  0.00    +0.000 A 
ATOM     27  C   UNL     1     -65.570 -54.155 -79.034  0.00  0.00    +0.000 A 
ATOM     28  C   UNL     1     -65.402 -55.524 -79.165  0.00  0.00    +0.000 A 
ATOM     29  C   UNL     1     -55.696 -53.394 -81.807  0.00  0.00    +0.000 A 
ATOM     30  C   UNL     1     -55.698 -54.779 -81.882  0.00  0.00    +0.000 A 
ATOM     31  H   UNL     1     -60.344 -59.709 -80.999  0.00  0.00    +0.000 HD
ENDROOT
BRANCH   7  32
ATOM     32  O   UNL     1     -61.485 -51.723 -78.069  0.00  0.00    +0.000 OA
ATOM     33  H   UNL     1     -60.608 -51.765 -77.630  0.00  0.00    +0.000 HD
ENDBRANCH   7  32
BRANCH   7  35
ATOM     34  O   UNL     1     -62.664 -49.213 -78.345  0.00  0.00    +0.000 OA
ATOM     35  C   UNL     1     -61.697 -49.506 -79.052  0.00  0.00    +0.000 C 
BRANCH  35  36
ATOM     36  O   UNL     1     -60.820 -48.656 -79.665  0.00  0.00    +0.000 OA
ATOM     37  C   UNL     1     -61.345 -47.710 -80.557  0.00  0.00    +0.000 C 
ENDBRANCH  35  36
ENDBRANCH   7  35
TORSDOF 3
ENDMDL
MODEL 9
REMARK VINA RESULT:      -6.1      2.582      5.933
REMARK  Name = 490561_Nocardiopsis.pdbqt.pdb
REMARK  3 active torsions:
REMARK  status: ('A' for Active; 'I' for Inactive)
REMARK    1  A    between atoms: C_7  and  O_32
REMARK    2  A    between atoms: C_7  and  C_35
REMARK    3  A    between atoms: C_35  and  O_36
REMARK                            x       y       z     vdW  Elec       q    Type
REMARK                         _______ _______ _______ _____ _____    ______ ____
ROOT
ATOM      1  O   UNL     1     -56.759 -61.376 -65.280  0.00  0.00    +0.000 OA
ATOM      2  O   UNL     1     -52.940 -54.886 -65.124  0.00  0.00    +0.000 OA
ATOM      3  N   UNL     1     -57.074 -59.933 -63.433  0.00  0.00    +0.000 N 
ATOM      4  N   UNL     1     -56.141 -59.333 -66.222  0.00  0.00    +0.000 N 
ATOM      5  N   UNL     1     -53.551 -55.136 -62.897  0.00  0.00    +0.000 N 
ATOM      6  C   UNL     1     -57.705 -61.019 -64.212  0.00  0.00    +0.000 C 
ATOM      7  C   UNL     1     -59.010 -60.557 -64.992  0.00  0.00    +0.000 C 
ATOM      8  C   UNL     1     -56.995 -60.420 -66.284  0.00  0.00    +0.000 C 
ATOM      9  C   UNL     1     -58.383 -60.143 -66.243  0.00  0.00    +0.000 C 
ATOM     10  C   UNL     1     -56.181 -58.962 -63.808  0.00  0.00    +0.000 A 
ATOM     11  C   UNL     1     -55.728 -58.685 -65.098  0.00  0.00    +0.000 A 
ATOM     12  C   UNL     1     -55.702 -58.068 -62.845  0.00  0.00    +0.000 A 
ATOM     13  C   UNL     1     -54.887 -57.573 -65.216  0.00  0.00    +0.000 A 
ATOM     14  C   UNL     1     -57.881 -62.324 -63.367  0.00  0.00    +0.000 C 
ATOM     15  C   UNL     1     -57.257 -59.578 -62.074  0.00  0.00    +0.000 A 
ATOM     16  C   UNL     1     -55.542 -58.530 -67.210  0.00  0.00    +0.000 A 
ATOM     17  C   UNL     1     -56.409 -58.470 -61.697  0.00  0.00    +0.000 A 
ATOM     18  C   UNL     1     -54.844 -56.965 -62.935  0.00  0.00    +0.000 A 
ATOM     19  C   UNL     1     -54.381 -56.675 -64.253  0.00  0.00    +0.000 A 
ATOM     20  C   UNL     1     -54.754 -57.471 -66.619  0.00  0.00    +0.000 A 
ATOM     21  C   UNL     1     -54.269 -55.912 -62.059  0.00  0.00    +0.000 C 
ATOM     22  C   UNL     1     -58.124 -60.148 -61.127  0.00  0.00    +0.000 A 
ATOM     23  C   UNL     1     -53.543 -55.496 -64.253  0.00  0.00    +0.000 C 
ATOM     24  C   UNL     1     -55.628 -58.671 -68.604  0.00  0.00    +0.000 A 
ATOM     25  C   UNL     1     -56.466 -58.001 -60.369  0.00  0.00    +0.000 A 
ATOM     26  C   UNL     1     -54.088 -56.584 -67.487  0.00  0.00    +0.000 A 
ATOM     27  C   UNL     1     -58.143 -59.649 -59.824  0.00  0.00    +0.000 A 
ATOM     28  C   UNL     1     -57.324 -58.597 -59.446  0.00  0.00    +0.000 A 
ATOM     29  C   UNL     1     -54.941 -57.767 -69.414  0.00  0.00    +0.000 A 
ATOM     30  C   UNL     1     -54.183 -56.741 -68.869  0.00  0.00    +0.000 A 
ATOM     31  H   UNL     1     -53.038 -54.326 -62.583  0.00  0.00    +0.000 HD
ENDROOT
BRANCH   7  32
ATOM     32  O   UNL     1     -59.689 -59.430 -64.417  0.00  0.00    +0.000 OA
ATOM     33  H   UNL     1     -60.354 -59.781 -63.785  0.00  0.00    +0.000 HD
ENDBRANCH   7  32
BRANCH   7  35
ATOM     34  O   UNL     1     -59.718 -62.616 -66.002  0.00  0.00    +0.000 OA
ATOM     35  C   UNL     1     -59.984 -61.714 -65.205  0.00  0.00    +0.000 C 
BRANCH  35  36
ATOM     36  O   UNL     1     -61.077 -61.613 -64.390  0.00  0.00    +0.000 OA
ATOM     37  C   UNL     1     -61.946 -62.711 -64.327  0.00  0.00    +0.000 C 
ENDBRANCH  35  36
ENDBRANCH   7  35
TORSDOF 3
ENDMDL
