MODEL 1
REMARK VINA RESULT:      -5.7      0.000      0.000
REMARK  Name = 50922675_Encorafenib.pdbqt.pdb
REMARK  8 active torsions:
REMARK  status: ('A' for Active; 'I' for Inactive)
REMARK    1  A    between atoms: N_1  and  C_37
REMARK    2  A    between atoms: C_3  and  C_23
REMARK    3  A    between atoms: C_4  and  C_8
REMARK    4  A    between atoms: C_11  and  N_14
REMARK    5  A    between atoms: N_14  and  S_16
REMARK    6  A    between atoms: N_20  and  C_28
REMARK    7  A    between atoms: C_28  and  C_29
REMARK    8  A    between atoms: C_33  and  O_35
REMARK                            x       y       z     vdW  Elec       q    Type
REMARK                         _______ _______ _______ _____ _____    ______ ____
ROOT
ATOM      1  N   UNL     1     -55.267 -58.199 -67.874  0.00  0.00    +0.000 N 
ATOM      2  N   UNL     1     -56.335 -59.072 -67.850  0.00  0.00    +0.000 NA
ATOM      3  C   UNL     1     -55.556 -58.813 -65.720  0.00  0.00    +0.000 A 
ATOM      4  C   UNL     1     -56.526 -59.416 -66.567  0.00  0.00    +0.000 A 
ATOM      5  C   UNL     1     -54.788 -58.061 -66.578  0.00  0.00    +0.000 A 
ENDROOT
BRANCH   4   8
ATOM      6 CL   UNL     1     -60.918 -60.280 -64.019  0.00  0.00    +0.000 Cl
ATOM      7  F   UNL     1     -56.636 -62.110 -67.521  0.00  0.00    +0.000 F 
ATOM      8  C   UNL     1     -57.602 -60.343 -66.237  0.00  0.00    +0.000 A 
ATOM      9  C   UNL     1     -57.608 -61.662 -66.708  0.00  0.00    +0.000 A 
ATOM     10  C   UNL     1     -58.626 -59.931 -65.384  0.00  0.00    +0.000 A 
ATOM     11  C   UNL     1     -58.631 -62.548 -66.354  0.00  0.00    +0.000 A 
ATOM     12  C   UNL     1     -59.641 -60.812 -65.029  0.00  0.00    +0.000 A 
ATOM     13  C   UNL     1     -59.640 -62.122 -65.495  0.00  0.00    +0.000 A 
BRANCH  11  14
ATOM     14  N   UNL     1     -58.561 -63.922 -66.767  0.00  0.00    +0.000 N 
ATOM     15  H   UNL     1     -57.600 -64.263 -66.869  0.00  0.00    +0.000 HD
BRANCH  14  16
ATOM     16  S   UNL     1     -59.414 -64.374 -68.136  0.00  0.00    +0.000 S 
ATOM     17  O   UNL     1     -60.777 -64.708 -67.820  0.00  0.00    +0.000 OA
ATOM     18  O   UNL     1     -58.958 -63.744 -69.355  0.00  0.00    +0.000 OA
ATOM     19  C   UNL     1     -58.861 -66.011 -68.508  0.00  0.00    +0.000 C 
ENDBRANCH  14  16
ENDBRANCH  11  14
ENDBRANCH   4   8
BRANCH   3  23
ATOM     20  N   UNL     1     -54.757 -56.464 -61.666  0.00  0.00    +0.000 N 
ATOM     21  N   UNL     1     -55.153 -57.666 -63.674  0.00  0.00    +0.000 NA
ATOM     22  N   UNL     1     -54.889 -58.782 -61.611  0.00  0.00    +0.000 NA
ATOM     23  C   UNL     1     -55.327 -58.852 -64.285  0.00  0.00    +0.000 A 
ATOM     24  C   UNL     1     -54.938 -57.668 -62.347  0.00  0.00    +0.000 A 
ATOM     25  C   UNL     1     -55.290 -60.053 -63.613  0.00  0.00    +0.000 A 
ATOM     26  C   UNL     1     -55.065 -59.945 -62.264  0.00  0.00    +0.000 A 
ATOM     27  H   UNL     1     -54.379 -56.670 -60.748  0.00  0.00    +0.000 HD
BRANCH  20  28
ATOM     28  C   UNL     1     -54.186 -55.357 -62.424  0.00  0.00    +0.000 C 
BRANCH  28  29
ATOM     29  C   UNL     1     -53.582 -54.236 -63.048  0.00  0.00    +0.000 C 
ATOM     30  C   UNL     1     -54.085 -53.834 -64.402  0.00  0.00    +0.000 C 
ATOM     31  O   UNL     1     -52.293 -54.493 -60.490  0.00  0.00    +0.000 OA
ATOM     32  N   UNL     1     -52.738 -53.369 -62.442  0.00  0.00    +0.000 N 
ATOM     33  C   UNL     1     -52.168 -53.503 -61.202  0.00  0.00    +0.000 C 
ATOM     34  H   UNL     1     -52.548 -52.518 -62.964  0.00  0.00    +0.000 HD
BRANCH  33  35
ATOM     35  O   UNL     1     -51.439 -52.375 -60.903  0.00  0.00    +0.000 OA
ATOM     36  C   UNL     1     -51.007 -52.195 -59.578  0.00  0.00    +0.000 C 
ENDBRANCH  33  35
ENDBRANCH  28  29
ENDBRANCH  20  28
ENDBRANCH   3  23
BRANCH   1  37
ATOM     37  C   UNL     1     -54.705 -57.537 -68.994  0.00  0.00    +0.000 C 
ATOM     38  C   UNL     1     -54.921 -58.033 -70.414  0.00  0.00    +0.000 C 
ATOM     39  C   UNL     1     -53.867 -56.283 -68.854  0.00  0.00    +0.000 C 
ENDBRANCH   1  37
TORSDOF 8
ENDMDL
MODEL 2
REMARK VINA RESULT:      -5.6     42.222     46.222
REMARK  Name = 50922675_Encorafenib.pdbqt.pdb
REMARK  8 active torsions:
REMARK  status: ('A' for Active; 'I' for Inactive)
REMARK    1  A    between atoms: N_1  and  C_37
REMARK    2  A    between atoms: C_3  and  C_23
REMARK    3  A    between atoms: C_4  and  C_8
REMARK    4  A    between atoms: C_11  and  N_14
REMARK    5  A    between atoms: N_14  and  S_16
REMARK    6  A    between atoms: N_20  and  C_28
REMARK    7  A    between atoms: C_28  and  C_29
REMARK    8  A    between atoms: C_33  and  O_35
REMARK                            x       y       z     vdW  Elec       q    Type
REMARK                         _______ _______ _______ _____ _____    ______ ____
ROOT
ATOM      1  N   UNL     1     -64.091 -53.684 -18.756  0.00  0.00    +0.000 N 
ATOM      2  N   UNL     1     -63.856 -53.243 -20.043  0.00  0.00    +0.000 NA
ATOM      3  C   UNL     1     -61.989 -54.315 -19.285  0.00  0.00    +0.000 A 
ATOM      4  C   UNL     1     -62.617 -53.641 -20.368  0.00  0.00    +0.000 A 
ATOM      5  C   UNL     1     -62.945 -54.319 -18.297  0.00  0.00    +0.000 A 
ENDROOT
BRANCH   4   8
ATOM      6 CL   UNL     1     -61.044 -49.995 -23.649  0.00  0.00    +0.000 Cl
ATOM      7  F   UNL     1     -62.113 -55.585 -22.404  0.00  0.00    +0.000 F 
ATOM      8  C   UNL     1     -62.093 -53.308 -21.687  0.00  0.00    +0.000 A 
ATOM      9  C   UNL     1     -61.879 -54.288 -22.664  0.00  0.00    +0.000 A 
ATOM     10  C   UNL     1     -61.849 -51.972 -22.012  0.00  0.00    +0.000 A 
ATOM     11  C   UNL     1     -61.408 -53.946 -23.936  0.00  0.00    +0.000 A 
ATOM     12  C   UNL     1     -61.385 -51.632 -23.278  0.00  0.00    +0.000 A 
ATOM     13  C   UNL     1     -61.179 -52.608 -24.246  0.00  0.00    +0.000 A 
BRANCH  11  14
ATOM     14  N   UNL     1     -61.295 -54.956 -24.951  0.00  0.00    +0.000 N 
ATOM     15  H   UNL     1     -62.102 -55.586 -24.984  0.00  0.00    +0.000 HD
BRANCH  14  16
ATOM     16  S   UNL     1     -59.908 -55.896 -24.971  0.00  0.00    +0.000 S 
ATOM     17  O   UNL     1     -58.725 -55.087 -25.083  0.00  0.00    +0.000 OA
ATOM     18  O   UNL     1     -60.020 -57.134 -24.231  0.00  0.00    +0.000 OA
ATOM     19  C   UNL     1     -59.852 -56.606 -26.589  0.00  0.00    +0.000 C 
ENDBRANCH  14  16
ENDBRANCH  11  14
ENDBRANCH   4   8
BRANCH   3  23
ATOM     20  N   UNL     1     -59.426 -58.152 -18.146  0.00  0.00    +0.000 N 
ATOM     21  N   UNL     1     -60.677 -56.218 -18.719  0.00  0.00    +0.000 NA
ATOM     22  N   UNL     1     -58.317 -56.211 -18.777  0.00  0.00    +0.000 NA
ATOM     23  C   UNL     1     -60.683 -54.935 -19.123  0.00  0.00    +0.000 A 
ATOM     24  C   UNL     1     -59.486 -56.820 -18.558  0.00  0.00    +0.000 A 
ATOM     25  C   UNL     1     -59.532 -54.222 -19.369  0.00  0.00    +0.000 A 
ATOM     26  C   UNL     1     -58.372 -54.927 -19.176  0.00  0.00    +0.000 A 
ATOM     27  H   UNL     1     -58.476 -58.354 -17.855  0.00  0.00    +0.000 HD
BRANCH  20  28
ATOM     28  C   UNL     1     -60.526 -58.639 -17.322  0.00  0.00    +0.000 C 
BRANCH  28  29
ATOM     29  C   UNL     1     -61.601 -59.215 -16.599  0.00  0.00    +0.000 C 
ATOM     30  C   UNL     1     -61.956 -60.641 -16.891  0.00  0.00    +0.000 C 
ATOM     31  O   UNL     1     -61.327 -56.535 -15.590  0.00  0.00    +0.000 OA
ATOM     32  N   UNL     1     -62.198 -58.659 -15.519  0.00  0.00    +0.000 N 
ATOM     33  C   UNL     1     -62.018 -57.387 -15.041  0.00  0.00    +0.000 C 
ATOM     34  H   UNL     1     -62.815 -59.279 -15.003  0.00  0.00    +0.000 HD
BRANCH  33  35
ATOM     35  O   UNL     1     -62.733 -57.223 -13.877  0.00  0.00    +0.000 OA
ATOM     36  C   UNL     1     -63.887 -56.421 -13.913  0.00  0.00    +0.000 C 
ENDBRANCH  33  35
ENDBRANCH  28  29
ENDBRANCH  20  28
ENDBRANCH   3  23
BRANCH   1  37
ATOM     37  C   UNL     1     -65.270 -53.536 -17.984  0.00  0.00    +0.000 C 
ATOM     38  C   UNL     1     -66.362 -52.549 -18.363  0.00  0.00    +0.000 C 
ATOM     39  C   UNL     1     -65.531 -54.362 -16.741  0.00  0.00    +0.000 C 
ENDBRANCH   1  37
TORSDOF 8
ENDMDL
MODEL 3
REMARK VINA RESULT:      -5.6     45.971     49.868
REMARK  Name = 50922675_Encorafenib.pdbqt.pdb
REMARK  8 active torsions:
REMARK  status: ('A' for Active; 'I' for Inactive)
REMARK    1  A    between atoms: N_1  and  C_37
REMARK    2  A    between atoms: C_3  and  C_23
REMARK    3  A    between atoms: C_4  and  C_8
REMARK    4  A    between atoms: C_11  and  N_14
REMARK    5  A    between atoms: N_14  and  S_16
REMARK    6  A    between atoms: N_20  and  C_28
REMARK    7  A    between atoms: C_28  and  C_29
REMARK    8  A    between atoms: C_33  and  O_35
REMARK                            x       y       z     vdW  Elec       q    Type
REMARK                         _______ _______ _______ _____ _____    ______ ____
ROOT
ATOM      1  N   UNL     1     -64.402 -57.655 -14.392  0.00  0.00    +0.000 N 
ATOM      2  N   UNL     1     -64.475 -57.104 -15.655  0.00  0.00    +0.000 NA
ATOM      3  C   UNL     1     -63.745 -55.503 -14.201  0.00  0.00    +0.000 A 
ATOM      4  C   UNL     1     -64.058 -55.833 -15.548  0.00  0.00    +0.000 A 
ATOM      5  C   UNL     1     -63.975 -56.670 -13.512  0.00  0.00    +0.000 A 
ENDROOT
BRANCH   4   8
ATOM      6 CL   UNL     1     -66.609 -52.703 -18.746  0.00  0.00    +0.000 Cl
ATOM      7  F   UNL     1     -61.749 -55.525 -17.208  0.00  0.00    +0.000 F 
ATOM      8  C   UNL     1     -64.031 -54.997 -16.742  0.00  0.00    +0.000 A 
ATOM      9  C   UNL     1     -62.885 -54.889 -17.540  0.00  0.00    +0.000 A 
ATOM     10  C   UNL     1     -65.190 -54.329 -17.139  0.00  0.00    +0.000 A 
ATOM     11  C   UNL     1     -62.887 -54.109 -18.702  0.00  0.00    +0.000 A 
ATOM     12  C   UNL     1     -65.194 -53.556 -18.296  0.00  0.00    +0.000 A 
ATOM     13  C   UNL     1     -64.056 -53.456 -19.087  0.00  0.00    +0.000 A 
BRANCH  11  14
ATOM     14  N   UNL     1     -61.733 -54.096 -19.556  0.00  0.00    +0.000 N 
ATOM     15  H   UNL     1     -61.054 -53.372 -19.304  0.00  0.00    +0.000 HD
BRANCH  14  16
ATOM     16  S   UNL     1     -61.983 -54.013 -21.211  0.00  0.00    +0.000 S 
ATOM     17  O   UNL     1     -62.525 -55.242 -21.724  0.00  0.00    +0.000 OA
ATOM     18  O   UNL     1     -62.285 -52.686 -21.699  0.00  0.00    +0.000 OA
ATOM     19  C   UNL     1     -60.375 -54.158 -21.930  0.00  0.00    +0.000 C 
ENDBRANCH  14  16
ENDBRANCH  11  14
ENDBRANCH   4   8
BRANCH   3  23
ATOM     20  N   UNL     1     -64.181 -50.824 -13.487  0.00  0.00    +0.000 N 
ATOM     21  N   UNL     1     -63.935 -53.161 -13.825  0.00  0.00    +0.000 NA
ATOM     22  N   UNL     1     -62.447 -51.961 -12.440  0.00  0.00    +0.000 NA
ATOM     23  C   UNL     1     -63.256 -54.292 -13.562  0.00  0.00    +0.000 A 
ATOM     24  C   UNL     1     -63.507 -52.023 -13.251  0.00  0.00    +0.000 A 
ATOM     25  C   UNL     1     -62.150 -54.328 -12.744  0.00  0.00    +0.000 A 
ATOM     26  C   UNL     1     -61.796 -53.115 -12.208  0.00  0.00    +0.000 A 
ATOM     27  H   UNL     1     -63.592 -50.060 -13.178  0.00  0.00    +0.000 HD
BRANCH  20  28
ATOM     28  C   UNL     1     -64.875 -50.697 -14.764  0.00  0.00    +0.000 C 
BRANCH  28  29
ATOM     29  C   UNL     1     -65.473 -50.473 -16.030  0.00  0.00    +0.000 C 
ATOM     30  C   UNL     1     -66.953 -50.240 -16.073  0.00  0.00    +0.000 C 
ATOM     31  O   UNL     1     -62.659 -50.777 -16.538  0.00  0.00    +0.000 OA
ATOM     32  N   UNL     1     -64.797 -50.239 -17.179  0.00  0.00    +0.000 N 
ATOM     33  C   UNL     1     -63.446 -50.357 -17.379  0.00  0.00    +0.000 C 
ATOM     34  H   UNL     1     -65.366 -49.908 -17.952  0.00  0.00    +0.000 HD
BRANCH  33  35
ATOM     35  O   UNL     1     -63.129 -49.951 -18.655  0.00  0.00    +0.000 OA
ATOM     36  C   UNL     1     -61.873 -50.308 -19.174  0.00  0.00    +0.000 C 
ENDBRANCH  33  35
ENDBRANCH  28  29
ENDBRANCH  20  28
ENDBRANCH   3  23
BRANCH   1  37
ATOM     37  C   UNL     1     -64.707 -58.982 -13.999  0.00  0.00    +0.000 C 
ATOM     38  C   UNL     1     -65.048 -60.063 -15.011  0.00  0.00    +0.000 C 
ATOM     39  C   UNL     1     -64.698 -59.417 -12.548  0.00  0.00    +0.000 C 
ENDBRANCH   1  37
TORSDOF 8
ENDMDL
MODEL 4
REMARK VINA RESULT:      -5.5     42.939     47.080
REMARK  Name = 50922675_Encorafenib.pdbqt.pdb
REMARK  8 active torsions:
REMARK  status: ('A' for Active; 'I' for Inactive)
REMARK    1  A    between atoms: N_1  and  C_37
REMARK    2  A    between atoms: C_3  and  C_23
REMARK    3  A    between atoms: C_4  and  C_8
REMARK    4  A    between atoms: C_11  and  N_14
REMARK    5  A    between atoms: N_14  and  S_16
REMARK    6  A    between atoms: N_20  and  C_28
REMARK    7  A    between atoms: C_28  and  C_29
REMARK    8  A    between atoms: C_33  and  O_35
REMARK                            x       y       z     vdW  Elec       q    Type
REMARK                         _______ _______ _______ _____ _____    ______ ____
ROOT
ATOM      1  N   UNL     1     -63.416 -54.852 -17.234  0.00  0.00    +0.000 N 
ATOM      2  N   UNL     1     -64.417 -54.010 -16.793  0.00  0.00    +0.000 NA
ATOM      3  C   UNL     1     -63.493 -53.121 -18.681  0.00  0.00    +0.000 A 
ATOM      4  C   UNL     1     -64.483 -52.995 -17.668  0.00  0.00    +0.000 A 
ATOM      5  C   UNL     1     -62.848 -54.294 -18.372  0.00  0.00    +0.000 A 
ENDROOT
BRANCH   4   8
ATOM      6 CL   UNL     1     -66.126 -49.101 -14.724  0.00  0.00    +0.000 Cl
ATOM      7  F   UNL     1     -66.712 -52.530 -19.398  0.00  0.00    +0.000 F 
ATOM      8  C   UNL     1     -65.464 -51.939 -17.450  0.00  0.00    +0.000 A 
ATOM      9  C   UNL     1     -66.554 -51.758 -18.310  0.00  0.00    +0.000 A 
ATOM     10  C   UNL     1     -65.353 -51.120 -16.325  0.00  0.00    +0.000 A 
ATOM     11  C   UNL     1     -67.505 -50.761 -18.067  0.00  0.00    +0.000 A 
ATOM     12  C   UNL     1     -66.300 -50.131 -16.081  0.00  0.00    +0.000 A 
ATOM     13  C   UNL     1     -67.383 -49.958 -16.935  0.00  0.00    +0.000 A 
BRANCH  11  14
ATOM     14  N   UNL     1     -68.667 -50.661 -18.905  0.00  0.00    +0.000 N 
ATOM     15  H   UNL     1     -68.967 -51.563 -19.286  0.00  0.00    +0.000 HD
BRANCH  14  16
ATOM     16  S   UNL     1     -68.632 -49.559 -20.167  0.00  0.00    +0.000 S 
ATOM     17  O   UNL     1     -67.304 -49.051 -20.386  0.00  0.00    +0.000 OA
ATOM     18  O   UNL     1     -69.626 -49.796 -21.189  0.00  0.00    +0.000 OA
ATOM     19  C   UNL     1     -69.335 -48.077 -19.507  0.00  0.00    +0.000 C 
ENDBRANCH  14  16
ENDBRANCH  11  14
ENDBRANCH   4   8
BRANCH   3  23
ATOM     20  N   UNL     1     -61.627 -52.864 -23.045  0.00  0.00    +0.000 N 
ATOM     21  N   UNL     1     -62.564 -52.959 -20.866  0.00  0.00    +0.000 NA
ATOM     22  N   UNL     1     -62.458 -50.928 -22.066  0.00  0.00    +0.000 NA
ATOM     23  C   UNL     1     -63.151 -52.314 -19.842  0.00  0.00    +0.000 A 
ATOM     24  C   UNL     1     -62.233 -52.241 -21.954  0.00  0.00    +0.000 A 
ATOM     25  C   UNL     1     -63.419 -50.964 -19.862  0.00  0.00    +0.000 A 
ATOM     26  C   UNL     1     -63.044 -50.325 -21.016  0.00  0.00    +0.000 A 
ATOM     27  H   UNL     1     -61.244 -52.147 -23.651  0.00  0.00    +0.000 HD
BRANCH  20  28
ATOM     28  C   UNL     1     -60.820 -54.046 -22.766  0.00  0.00    +0.000 C 
BRANCH  28  29
ATOM     29  C   UNL     1     -60.143 -55.252 -22.454  0.00  0.00    +0.000 C 
ATOM     30  C   UNL     1     -59.869 -55.548 -21.011  0.00  0.00    +0.000 C 
ATOM     31  O   UNL     1     -60.455 -55.247 -25.313  0.00  0.00    +0.000 OA
ATOM     32  N   UNL     1     -59.909 -56.260 -23.326  0.00  0.00    +0.000 N 
ATOM     33  C   UNL     1     -60.104 -56.239 -24.683  0.00  0.00    +0.000 C 
ATOM     34  H   UNL     1     -59.589 -57.128 -22.905  0.00  0.00    +0.000 HD
BRANCH  33  35
ATOM     35  O   UNL     1     -59.835 -57.481 -25.210  0.00  0.00    +0.000 OA
ATOM     36  C   UNL     1     -59.715 -58.567 -24.327  0.00  0.00    +0.000 C 
ENDBRANCH  33  35
ENDBRANCH  28  29
ENDBRANCH  20  28
ENDBRANCH   3  23
BRANCH   1  37
ATOM     37  C   UNL     1     -62.990 -56.076 -16.662  0.00  0.00    +0.000 C 
ATOM     38  C   UNL     1     -63.835 -56.829 -15.649  0.00  0.00    +0.000 C 
ATOM     39  C   UNL     1     -61.673 -56.726 -17.034  0.00  0.00    +0.000 C 
ENDBRANCH   1  37
TORSDOF 8
ENDMDL
MODEL 5
REMARK VINA RESULT:      -5.5     20.186     24.518
REMARK  Name = 50922675_Encorafenib.pdbqt.pdb
REMARK  8 active torsions:
REMARK  status: ('A' for Active; 'I' for Inactive)
REMARK    1  A    between atoms: N_1  and  C_37
REMARK    2  A    between atoms: C_3  and  C_23
REMARK    3  A    between atoms: C_4  and  C_8
REMARK    4  A    between atoms: C_11  and  N_14
REMARK    5  A    between atoms: N_14  and  S_16
REMARK    6  A    between atoms: N_20  and  C_28
REMARK    7  A    between atoms: C_28  and  C_29
REMARK    8  A    between atoms: C_33  and  O_35
REMARK                            x       y       z     vdW  Elec       q    Type
REMARK                         _______ _______ _______ _____ _____    ______ ____
ROOT
ATOM      1  N   UNL     1     -60.980 -45.052 -47.313  0.00  0.00    +0.000 N 
ATOM      2  N   UNL     1     -61.184 -45.495 -46.021  0.00  0.00    +0.000 NA
ATOM      3  C   UNL     1     -59.036 -44.746 -46.207  0.00  0.00    +0.000 A 
ATOM      4  C   UNL     1     -60.037 -45.287 -45.355  0.00  0.00    +0.000 A 
ATOM      5  C   UNL     1     -59.666 -44.616 -47.421  0.00  0.00    +0.000 A 
ENDROOT
BRANCH   4   8
ATOM      6 CL   UNL     1     -61.690 -44.544 -40.534  0.00  0.00    +0.000 Cl
ATOM      7  F   UNL     1     -58.262 -47.295 -44.358  0.00  0.00    +0.000 F 
ATOM      8  C   UNL     1     -59.960 -45.667 -43.950  0.00  0.00    +0.000 A 
ATOM      9  C   UNL     1     -59.061 -46.641 -43.499  0.00  0.00    +0.000 A 
ATOM     10  C   UNL     1     -60.758 -45.006 -43.015  0.00  0.00    +0.000 A 
ATOM     11  C   UNL     1     -58.976 -46.969 -42.141  0.00  0.00    +0.000 A 
ATOM     12  C   UNL     1     -60.671 -45.329 -41.665  0.00  0.00    +0.000 A 
ATOM     13  C   UNL     1     -59.774 -46.293 -41.221  0.00  0.00    +0.000 A 
BRANCH  11  14
ATOM     14  N   UNL     1     -57.977 -47.897 -41.691  0.00  0.00    +0.000 N 
ATOM     15  H   UNL     1     -58.353 -48.629 -41.082  0.00  0.00    +0.000 HD
BRANCH  14  16
ATOM     16  S   UNL     1     -56.602 -47.277 -40.960  0.00  0.00    +0.000 S 
ATOM     17  O   UNL     1     -56.217 -46.020 -41.544  0.00  0.00    +0.000 OA
ATOM     18  O   UNL     1     -56.453 -47.645 -39.570  0.00  0.00    +0.000 OA
ATOM     19  C   UNL     1     -55.264 -48.241 -41.595  0.00  0.00    +0.000 C 
ENDBRANCH  14  16
ENDBRANCH  11  14
ENDBRANCH   4   8
BRANCH   3  23
ATOM     20  N   UNL     1     -54.558 -44.541 -47.787  0.00  0.00    +0.000 N 
ATOM     21  N   UNL     1     -56.784 -44.629 -46.969  0.00  0.00    +0.000 NA
ATOM     22  N   UNL     1     -55.052 -43.645 -45.701  0.00  0.00    +0.000 NA
ATOM     23  C   UNL     1     -57.657 -44.341 -45.986  0.00  0.00    +0.000 A 
ATOM     24  C   UNL     1     -55.500 -44.269 -46.794  0.00  0.00    +0.000 A 
ATOM     25  C   UNL     1     -57.290 -43.705 -44.822  0.00  0.00    +0.000 A 
ATOM     26  C   UNL     1     -55.959 -43.380 -44.743  0.00  0.00    +0.000 A 
ATOM     27  H   UNL     1     -53.632 -44.420 -47.390  0.00  0.00    +0.000 HD
BRANCH  20  28
ATOM     28  C   UNL     1     -54.807 -45.700 -48.635  0.00  0.00    +0.000 C 
BRANCH  28  29
ATOM     29  C   UNL     1     -54.957 -46.782 -49.539  0.00  0.00    +0.000 C 
ATOM     30  C   UNL     1     -54.944 -46.476 -51.006  0.00  0.00    +0.000 C 
ATOM     31  O   UNL     1     -54.984 -47.949 -46.910  0.00  0.00    +0.000 OA
ATOM     32  N   UNL     1     -54.900 -48.092 -49.200  0.00  0.00    +0.000 N 
ATOM     33  C   UNL     1     -54.876 -48.616 -47.934  0.00  0.00    +0.000 C 
ATOM     34  H   UNL     1     -54.832 -48.735 -49.984  0.00  0.00    +0.000 HD
BRANCH  33  35
ATOM     35  O   UNL     1     -54.729 -49.982 -48.000  0.00  0.00    +0.000 OA
ATOM     36  C   UNL     1     -53.602 -50.499 -48.662  0.00  0.00    +0.000 C 
ENDBRANCH  33  35
ENDBRANCH  28  29
ENDBRANCH  20  28
ENDBRANCH   3  23
BRANCH   1  37
ATOM     37  C   UNL     1     -61.906 -45.033 -48.385  0.00  0.00    +0.000 C 
ATOM     38  C   UNL     1     -62.707 -43.791 -48.736  0.00  0.00    +0.000 C 
ATOM     39  C   UNL     1     -62.147 -46.242 -49.266  0.00  0.00    +0.000 C 
ENDBRANCH   1  37
TORSDOF 8
ENDMDL
MODEL 6
REMARK VINA RESULT:      -5.5     41.814     45.861
REMARK  Name = 50922675_Encorafenib.pdbqt.pdb
REMARK  8 active torsions:
REMARK  status: ('A' for Active; 'I' for Inactive)
REMARK    1  A    between atoms: N_1  and  C_37
REMARK    2  A    between atoms: C_3  and  C_23
REMARK    3  A    between atoms: C_4  and  C_8
REMARK    4  A    between atoms: C_11  and  N_14
REMARK    5  A    between atoms: N_14  and  S_16
REMARK    6  A    between atoms: N_20  and  C_28
REMARK    7  A    between atoms: C_28  and  C_29
REMARK    8  A    between atoms: C_33  and  O_35
REMARK                            x       y       z     vdW  Elec       q    Type
REMARK                         _______ _______ _______ _____ _____    ______ ____
ROOT
ATOM      1  N   UNL     1     -63.987 -53.755 -18.781  0.00  0.00    +0.000 N 
ATOM      2  N   UNL     1     -63.778 -53.285 -20.062  0.00  0.00    +0.000 NA
ATOM      3  C   UNL     1     -61.890 -54.358 -19.360  0.00  0.00    +0.000 A 
ATOM      4  C   UNL     1     -62.542 -53.667 -20.418  0.00  0.00    +0.000 A 
ATOM      5  C   UNL     1     -62.827 -54.389 -18.356  0.00  0.00    +0.000 A 
ENDROOT
BRANCH   4   8
ATOM      6 CL   UNL     1     -61.102 -49.940 -23.668  0.00  0.00    +0.000 Cl
ATOM      7  F   UNL     1     -62.022 -55.571 -22.488  0.00  0.00    +0.000 F 
ATOM      8  C   UNL     1     -62.045 -53.304 -21.739  0.00  0.00    +0.000 A 
ATOM      9  C   UNL     1     -61.823 -54.265 -22.733  0.00  0.00    +0.000 A 
ATOM     10  C   UNL     1     -61.838 -51.959 -22.049  0.00  0.00    +0.000 A 
ATOM     11  C   UNL     1     -61.378 -53.895 -24.006  0.00  0.00    +0.000 A 
ATOM     12  C   UNL     1     -61.399 -51.590 -23.316  0.00  0.00    +0.000 A 
ATOM     13  C   UNL     1     -61.185 -52.547 -24.300  0.00  0.00    +0.000 A 
BRANCH  11  14
ATOM     14  N   UNL     1     -61.256 -54.887 -25.037  0.00  0.00    +0.000 N 
ATOM     15  H   UNL     1     -62.013 -55.576 -25.025  0.00  0.00    +0.000 HD
BRANCH  14  16
ATOM     16  S   UNL     1     -59.807 -55.720 -25.156  0.00  0.00    +0.000 S 
ATOM     17  O   UNL     1     -58.728 -54.849 -25.538  0.00  0.00    +0.000 OA
ATOM     18  O   UNL     1     -59.702 -56.857 -24.269  0.00  0.00    +0.000 OA
ATOM     19  C   UNL     1     -59.914 -56.625 -26.671  0.00  0.00    +0.000 C 
ENDBRANCH  14  16
ENDBRANCH  11  14
ENDBRANCH   4   8
BRANCH   3  23
ATOM     20  N   UNL     1     -59.276 -58.183 -18.298  0.00  0.00    +0.000 N 
ATOM     21  N   UNL     1     -60.552 -56.255 -18.833  0.00  0.00    +0.000 NA
ATOM     22  N   UNL     1     -58.195 -56.234 -18.955  0.00  0.00    +0.000 NA
ATOM     23  C   UNL     1     -60.577 -54.971 -19.234  0.00  0.00    +0.000 A 
ATOM     24  C   UNL     1     -59.354 -56.851 -18.705  0.00  0.00    +0.000 A 
ATOM     25  C   UNL     1     -59.437 -54.251 -19.510  0.00  0.00    +0.000 A 
ATOM     26  C   UNL     1     -58.268 -54.950 -19.350  0.00  0.00    +0.000 A 
ATOM     27  H   UNL     1     -58.317 -58.380 -18.033  0.00  0.00    +0.000 HD
BRANCH  20  28
ATOM     28  C   UNL     1     -60.351 -58.677 -17.446  0.00  0.00    +0.000 C 
BRANCH  28  29
ATOM     29  C   UNL     1     -61.405 -59.259 -16.697  0.00  0.00    +0.000 C 
ATOM     30  C   UNL     1     -62.172 -58.372 -15.764  0.00  0.00    +0.000 C 
ATOM     31  O   UNL     1     -60.354 -61.372 -18.340  0.00  0.00    +0.000 OA
ATOM     32  N   UNL     1     -61.917 -60.494 -16.905  0.00  0.00    +0.000 N 
ATOM     33  C   UNL     1     -61.412 -61.469 -17.727  0.00  0.00    +0.000 C 
ATOM     34  H   UNL     1     -62.788 -60.686 -16.419  0.00  0.00    +0.000 HD
BRANCH  33  35
ATOM     35  O   UNL     1     -62.259 -62.552 -17.737  0.00  0.00    +0.000 OA
ATOM     36  C   UNL     1     -61.795 -63.765 -17.200  0.00  0.00    +0.000 C 
ENDBRANCH  33  35
ENDBRANCH  28  29
ENDBRANCH  20  28
ENDBRANCH   3  23
BRANCH   1  37
ATOM     37  C   UNL     1     -65.153 -53.631 -17.985  0.00  0.00    +0.000 C 
ATOM     38  C   UNL     1     -66.257 -52.644 -18.321  0.00  0.00    +0.000 C 
ATOM     39  C   UNL     1     -65.385 -54.486 -16.756  0.00  0.00    +0.000 C 
ENDBRANCH   1  37
TORSDOF 8
ENDMDL
MODEL 7
REMARK VINA RESULT:      -5.4     16.954     19.854
REMARK  Name = 50922675_Encorafenib.pdbqt.pdb
REMARK  8 active torsions:
REMARK  status: ('A' for Active; 'I' for Inactive)
REMARK    1  A    between atoms: N_1  and  C_37
REMARK    2  A    between atoms: C_3  and  C_23
REMARK    3  A    between atoms: C_4  and  C_8
REMARK    4  A    between atoms: C_11  and  N_14
REMARK    5  A    between atoms: N_14  and  S_16
REMARK    6  A    between atoms: N_20  and  C_28
REMARK    7  A    between atoms: C_28  and  C_29
REMARK    8  A    between atoms: C_33  and  O_35
REMARK                            x       y       z     vdW  Elec       q    Type
REMARK                         _______ _______ _______ _____ _____    ______ ____
ROOT
ATOM      1  N   UNL     1     -63.434 -46.324 -58.078  0.00  0.00    +0.000 N 
ATOM      2  N   UNL     1     -63.125 -46.636 -56.770  0.00  0.00    +0.000 NA
ATOM      3  C   UNL     1     -65.350 -47.016 -57.105  0.00  0.00    +0.000 A 
ATOM      4  C   UNL     1     -64.257 -47.074 -56.198  0.00  0.00    +0.000 A 
ATOM      5  C   UNL     1     -64.792 -46.541 -58.268  0.00  0.00    +0.000 A 
ENDROOT
BRANCH   4   8
ATOM      6 CL   UNL     1     -64.358 -50.905 -52.756  0.00  0.00    +0.000 Cl
ATOM      7  F   UNL     1     -64.129 -45.222 -54.023  0.00  0.00    +0.000 F 
ATOM      8  C   UNL     1     -64.228 -47.478 -54.797  0.00  0.00    +0.000 A 
ATOM      9  C   UNL     1     -64.187 -46.538 -53.760  0.00  0.00    +0.000 A 
ATOM     10  C   UNL     1     -64.303 -48.834 -54.472  0.00  0.00    +0.000 A 
ATOM     11  C   UNL     1     -64.195 -46.943 -52.421  0.00  0.00    +0.000 A 
ATOM     12  C   UNL     1     -64.315 -49.236 -53.141  0.00  0.00    +0.000 A 
ATOM     13  C   UNL     1     -64.279 -48.300 -52.115  0.00  0.00    +0.000 A 
BRANCH  11  14
ATOM     14  N   UNL     1     -64.255 -45.959 -51.377  0.00  0.00    +0.000 N 
ATOM     15  H   UNL     1     -64.811 -45.137 -51.631  0.00  0.00    +0.000 HD
BRANCH  14  16
ATOM     16  S   UNL     1     -62.809 -45.419 -50.725  0.00  0.00    +0.000 S 
ATOM     17  O   UNL     1     -62.941 -45.129 -49.322  0.00  0.00    +0.000 OA
ATOM     18  O   UNL     1     -61.631 -45.950 -51.372  0.00  0.00    +0.000 OA
ATOM     19  C   UNL     1     -62.642 -43.751 -51.285  0.00  0.00    +0.000 C 
ENDBRANCH  14  16
ENDBRANCH  11  14
ENDBRANCH   4   8
BRANCH   3  23
ATOM     20  N   UNL     1     -69.389 -46.876 -54.602  0.00  0.00    +0.000 N 
ATOM     21  N   UNL     1     -67.387 -46.965 -55.875  0.00  0.00    +0.000 NA
ATOM     22  N   UNL     1     -69.376 -47.973 -56.650  0.00  0.00    +0.000 NA
ATOM     23  C   UNL     1     -66.755 -47.372 -56.991  0.00  0.00    +0.000 A 
ATOM     24  C   UNL     1     -68.687 -47.280 -55.739  0.00  0.00    +0.000 A 
ATOM     25  C   UNL     1     -67.379 -48.094 -57.983  0.00  0.00    +0.000 A 
ATOM     26  C   UNL     1     -68.704 -48.362 -57.748  0.00  0.00    +0.000 A 
ATOM     27  H   UNL     1     -70.259 -47.395 -54.563  0.00  0.00    +0.000 HD
BRANCH  20  28
ATOM     28  C   UNL     1     -68.619 -46.712 -53.375  0.00  0.00    +0.000 C 
BRANCH  28  29
ATOM     29  C   UNL     1     -67.921 -46.664 -52.141  0.00  0.00    +0.000 C 
ATOM     30  C   UNL     1     -67.705 -45.322 -51.511  0.00  0.00    +0.000 C 
ATOM     31  O   UNL     1     -68.101 -49.451 -52.831  0.00  0.00    +0.000 OA
ATOM     32  N   UNL     1     -67.617 -47.740 -51.378  0.00  0.00    +0.000 N 
ATOM     33  C   UNL     1     -67.750 -49.060 -51.723  0.00  0.00    +0.000 C 
ATOM     34  H   UNL     1     -67.291 -47.523 -50.441  0.00  0.00    +0.000 HD
BRANCH  33  35
ATOM     35  O   UNL     1     -67.419 -49.856 -50.650  0.00  0.00    +0.000 OA
ATOM     36  C   UNL     1     -68.348 -50.820 -50.225  0.00  0.00    +0.000 C 
ENDBRANCH  33  35
ENDBRANCH  28  29
ENDBRANCH  20  28
ENDBRANCH   3  23
BRANCH   1  37
ATOM     37  C   UNL     1     -62.565 -45.851 -59.092  0.00  0.00    +0.000 C 
ATOM     38  C   UNL     1     -62.114 -46.733 -60.243  0.00  0.00    +0.000 C 
ATOM     39  C   UNL     1     -62.040 -44.429 -59.107  0.00  0.00    +0.000 C 
ENDBRANCH   1  37
TORSDOF 8
ENDMDL
MODEL 8
REMARK VINA RESULT:      -5.4     15.056     18.026
REMARK  Name = 50922675_Encorafenib.pdbqt.pdb
REMARK  8 active torsions:
REMARK  status: ('A' for Active; 'I' for Inactive)
REMARK    1  A    between atoms: N_1  and  C_37
REMARK    2  A    between atoms: C_3  and  C_23
REMARK    3  A    between atoms: C_4  and  C_8
REMARK    4  A    between atoms: C_11  and  N_14
REMARK    5  A    between atoms: N_14  and  S_16
REMARK    6  A    between atoms: N_20  and  C_28
REMARK    7  A    between atoms: C_28  and  C_29
REMARK    8  A    between atoms: C_33  and  O_35
REMARK                            x       y       z     vdW  Elec       q    Type
REMARK                         _______ _______ _______ _____ _____    ______ ____
ROOT
ATOM      1  N   UNL     1     -63.297 -55.106 -79.955  0.00  0.00    +0.000 N 
ATOM      2  N   UNL     1     -62.172 -55.240 -80.742  0.00  0.00    +0.000 NA
ATOM      3  C   UNL     1     -62.719 -57.287 -79.894  0.00  0.00    +0.000 A 
ATOM      4  C   UNL     1     -61.843 -56.541 -80.730  0.00  0.00    +0.000 A 
ATOM      5  C   UNL     1     -63.612 -56.352 -79.429  0.00  0.00    +0.000 A 
ENDROOT
BRANCH   4   8
ATOM      6 CL   UNL     1     -56.757 -56.231 -81.481  0.00  0.00    +0.000 Cl
ATOM      7  F   UNL     1     -61.978 -58.388 -82.909  0.00  0.00    +0.000 F 
ATOM      8  C   UNL     1     -60.676 -56.981 -81.485  0.00  0.00    +0.000 A 
ATOM      9  C   UNL     1     -60.788 -57.871 -82.560  0.00  0.00    +0.000 A 
ATOM     10  C   UNL     1     -59.419 -56.460 -81.172  0.00  0.00    +0.000 A 
ATOM     11  C   UNL     1     -59.662 -58.256 -83.296  0.00  0.00    +0.000 A 
ATOM     12  C   UNL     1     -58.301 -56.840 -81.906  0.00  0.00    +0.000 A 
ATOM     13  C   UNL     1     -58.417 -57.720 -82.975  0.00  0.00    +0.000 A 
BRANCH  11  14
ATOM     14  N   UNL     1     -59.816 -59.089 -84.455  0.00  0.00    +0.000 N 
ATOM     15  H   UNL     1     -59.486 -60.048 -84.308  0.00  0.00    +0.000 HD
BRANCH  14  16
ATOM     16  S   UNL     1     -59.177 -58.543 -85.905  0.00  0.00    +0.000 S 
ATOM     17  O   UNL     1     -59.648 -57.222 -86.223  0.00  0.00    +0.000 OA
ATOM     18  O   UNL     1     -57.866 -59.071 -86.212  0.00  0.00    +0.000 OA
ATOM     19  C   UNL     1     -60.069 -59.410 -87.161  0.00  0.00    +0.000 C 
ENDBRANCH  14  16
ENDBRANCH  11  14
ENDBRANCH   4   8
BRANCH   3  23
ATOM     20  N   UNL     1     -65.294 -60.922 -78.235  0.00  0.00    +0.000 N 
ATOM     21  N   UNL     1     -63.981 -59.127 -79.066  0.00  0.00    +0.000 NA
ATOM     22  N   UNL     1     -63.091 -61.304 -78.864  0.00  0.00    +0.000 NA
ATOM     23  C   UNL     1     -62.801 -58.698 -79.550  0.00  0.00    +0.000 A 
ATOM     24  C   UNL     1     -64.090 -60.426 -78.736  0.00  0.00    +0.000 A 
ATOM     25  C   UNL     1     -61.714 -59.525 -79.714  0.00  0.00    +0.000 A 
ATOM     26  C   UNL     1     -61.929 -60.830 -79.349  0.00  0.00    +0.000 A 
ATOM     27  H   UNL     1     -65.120 -61.834 -77.829  0.00  0.00    +0.000 HD
BRANCH  20  28
ATOM     28  C   UNL     1     -66.142 -59.985 -77.508  0.00  0.00    +0.000 C 
BRANCH  28  29
ATOM     29  C   UNL     1     -66.921 -59.127 -76.691  0.00  0.00    +0.000 C 
ATOM     30  C   UNL     1     -67.659 -58.006 -77.358  0.00  0.00    +0.000 C 
ATOM     31  O   UNL     1     -65.812 -61.100 -74.917  0.00  0.00    +0.000 OA
ATOM     32  N   UNL     1     -67.227 -59.356 -75.392  0.00  0.00    +0.000 N 
ATOM     33  C   UNL     1     -66.707 -60.332 -74.582  0.00  0.00    +0.000 C 
ATOM     34  H   UNL     1     -67.948 -58.751 -75.008  0.00  0.00    +0.000 HD
BRANCH  33  35
ATOM     35  O   UNL     1     -67.330 -60.298 -73.356  0.00  0.00    +0.000 OA
ATOM     36  C   UNL     1     -66.537 -60.113 -72.211  0.00  0.00    +0.000 C 
ENDBRANCH  33  35
ENDBRANCH  28  29
ENDBRANCH  20  28
ENDBRANCH   3  23
BRANCH   1  37
ATOM     37  C   UNL     1     -64.038 -53.929 -79.684  0.00  0.00    +0.000 C 
ATOM     38  C   UNL     1     -65.438 -53.975 -79.097  0.00  0.00    +0.000 C 
ATOM     39  C   UNL     1     -63.479 -52.545 -79.944  0.00  0.00    +0.000 C 
ENDBRANCH   1  37
TORSDOF 8
ENDMDL
MODEL 9
REMARK VINA RESULT:      -5.4      3.556      6.143
REMARK  Name = 50922675_Encorafenib.pdbqt.pdb
REMARK  8 active torsions:
REMARK  status: ('A' for Active; 'I' for Inactive)
REMARK    1  A    between atoms: N_1  and  C_37
REMARK    2  A    between atoms: C_3  and  C_23
REMARK    3  A    between atoms: C_4  and  C_8
REMARK    4  A    between atoms: C_11  and  N_14
REMARK    5  A    between atoms: N_14  and  S_16
REMARK    6  A    between atoms: N_20  and  C_28
REMARK    7  A    between atoms: C_28  and  C_29
REMARK    8  A    between atoms: C_33  and  O_35
REMARK                            x       y       z     vdW  Elec       q    Type
REMARK                         _______ _______ _______ _____ _____    ______ ____
ROOT
ATOM      1  N   UNL     1     -59.132 -56.705 -60.241  0.00  0.00    +0.000 N 
ATOM      2  N   UNL     1     -59.948 -57.487 -61.034  0.00  0.00    +0.000 NA
ATOM      3  C   UNL     1     -57.890 -58.467 -60.913  0.00  0.00    +0.000 A 
ATOM      4  C   UNL     1     -59.220 -58.549 -61.411  0.00  0.00    +0.000 A 
ATOM      5  C   UNL     1     -57.878 -57.299 -60.189  0.00  0.00    +0.000 A 
ENDROOT
BRANCH   4   8
ATOM      6 CL   UNL     1     -62.630 -62.378 -61.897  0.00  0.00    +0.000 Cl
ATOM      7  F   UNL     1     -58.466 -58.974 -64.137  0.00  0.00    +0.000 F 
ATOM      8  C   UNL     1     -59.833 -59.556 -62.268  0.00  0.00    +0.000 A 
ATOM      9  C   UNL     1     -59.421 -59.747 -63.593  0.00  0.00    +0.000 A 
ATOM     10  C   UNL     1     -60.818 -60.395 -61.744  0.00  0.00    +0.000 A 
ATOM     11  C   UNL     1     -59.997 -60.741 -64.390  0.00  0.00    +0.000 A 
ATOM     12  C   UNL     1     -61.388 -61.386 -62.536  0.00  0.00    +0.000 A 
ATOM     13  C   UNL     1     -60.972 -61.575 -63.848  0.00  0.00    +0.000 A 
BRANCH  11  14
ATOM     14  N   UNL     1     -59.486 -60.983 -65.710  0.00  0.00    +0.000 N 
ATOM     15  H   UNL     1     -60.169 -60.785 -66.448  0.00  0.00    +0.000 HD
BRANCH  14  16
ATOM     16  S   UNL     1     -58.810 -62.483 -66.027  0.00  0.00    +0.000 S 
ATOM     17  O   UNL     1     -57.742 -62.784 -65.112  0.00  0.00    +0.000 OA
ATOM     18  O   UNL     1     -59.732 -63.442 -66.595  0.00  0.00    +0.000 OA
ATOM     19  C   UNL     1     -57.813 -62.248 -67.468  0.00  0.00    +0.000 C 
ENDBRANCH  14  16
ENDBRANCH  11  14
ENDBRANCH   4   8
BRANCH   3  23
ATOM     20  N   UNL     1     -53.635 -59.349 -62.838  0.00  0.00    +0.000 N 
ATOM     21  N   UNL     1     -55.759 -58.938 -61.861  0.00  0.00    +0.000 NA
ATOM     22  N   UNL     1     -54.520 -60.875 -61.328  0.00  0.00    +0.000 NA
ATOM     23  C   UNL     1     -56.733 -59.340 -61.024  0.00  0.00    +0.000 A 
ATOM     24  C   UNL     1     -54.675 -59.724 -61.987  0.00  0.00    +0.000 A 
ATOM     25  C   UNL     1     -56.666 -60.511 -60.305  0.00  0.00    +0.000 A 
ATOM     26  C   UNL     1     -55.520 -61.239 -60.504  0.00  0.00    +0.000 A 
ATOM     27  H   UNL     1     -53.036 -60.154 -62.984  0.00  0.00    +0.000 HD
BRANCH  20  28
ATOM     28  C   UNL     1     -53.988 -58.524 -63.988  0.00  0.00    +0.000 C 
BRANCH  28  29
ATOM     29  C   UNL     1     -54.239 -57.639 -65.067  0.00  0.00    +0.000 C 
ATOM     30  C   UNL     1     -53.476 -56.350 -65.107  0.00  0.00    +0.000 C 
ATOM     31  O   UNL     1     -55.899 -59.940 -65.540  0.00  0.00    +0.000 OA
ATOM     32  N   UNL     1     -54.951 -57.948 -66.176  0.00  0.00    +0.000 N 
ATOM     33  C   UNL     1     -55.704 -59.074 -66.386  0.00  0.00    +0.000 C 
ATOM     34  H   UNL     1     -54.876 -57.277 -66.935  0.00  0.00    +0.000 HD
BRANCH  33  35
ATOM     35  O   UNL     1     -56.205 -59.065 -67.667  0.00  0.00    +0.000 OA
ATOM     36  C   UNL     1     -55.808 -58.030 -68.530  0.00  0.00    +0.000 C 
ENDBRANCH  33  35
ENDBRANCH  28  29
ENDBRANCH  20  28
ENDBRANCH   3  23
BRANCH   1  37
ATOM     37  C   UNL     1     -59.457 -55.494 -59.581  0.00  0.00    +0.000 C 
ATOM     38  C   UNL     1     -59.860 -55.458 -58.117  0.00  0.00    +0.000 C 
ATOM     39  C   UNL     1     -59.407 -54.153 -60.284  0.00  0.00    +0.000 C 
ENDBRANCH   1  37
TORSDOF 8
ENDMDL
