MODEL 1
REMARK VINA RESULT:      -6.4      0.000      0.000
REMARK  Name = 5109870_Ethoxyphenyl.pdbqt.pdb
REMARK  6 active torsions:
REMARK  status: ('A' for Active; 'I' for Inactive)
REMARK    1  A    between atoms: N_2  and  C_22
REMARK    2  A    between atoms: C_3  and  O_11
REMARK    3  A    between atoms: C_3  and  C_13
REMARK    4  A    between atoms: C_16  and  N_19
REMARK    5  A    between atoms: C_25  and  O_28
REMARK    6  A    between atoms: O_28  and  C_29
REMARK                            x       y       z     vdW  Elec       q    Type
REMARK                         _______ _______ _______ _____ _____    ______ ____
ROOT
ATOM      1  N   UNL     1     -71.375 -56.177 -29.000  0.00  0.00    +0.000 N 
ATOM      2  N   UNL     1     -70.146 -56.997 -30.891  0.00  0.00    +0.000 N 
ATOM      3  C   UNL     1     -71.952 -57.516 -29.266  0.00  0.00    +0.000 C 
ATOM      4  C   UNL     1     -70.429 -55.884 -30.124  0.00  0.00    +0.000 C 
ATOM      5  C   UNL     1     -71.058 -57.963 -30.336  0.00  0.00    +0.000 C 
ATOM      6  C   UNL     1     -72.290 -55.067 -28.738  0.00  0.00    +0.000 C 
ATOM      7  C   UNL     1     -70.259 -54.552 -30.602  0.00  0.00    +0.000 C 
ATOM      8  C   UNL     1     -72.707 -53.600 -28.939  0.00  0.00    +0.000 C 
ATOM      9  C   UNL     1     -70.782 -53.107 -30.628  0.00  0.00    +0.000 C 
ATOM     10  C   UNL     1     -71.988 -52.602 -29.841  0.00  0.00    +0.000 C 
ENDROOT
BRANCH   3  11
ATOM     11  C   UNL     1     -71.943 -58.382 -28.029  0.00  0.00    +0.000 A 
ATOM     12  C   UNL     1     -71.448 -57.907 -26.806  0.00  0.00    +0.000 A 
ATOM     13  C   UNL     1     -71.483 -58.696 -25.660  0.00  0.00    +0.000 A 
ATOM     14  C   UNL     1     -72.034 -59.972 -25.737  0.00  0.00    +0.000 A 
ATOM     15  C   UNL     1     -72.548 -60.470 -26.930  0.00  0.00    +0.000 A 
ATOM     16  C   UNL     1     -72.505 -59.667 -28.067  0.00  0.00    +0.000 A 
BRANCH  14  17
ATOM     17  N   UNL     1     -72.072 -60.801 -24.548  0.00  0.00    +0.000 N 
ATOM     18  O   UNL     1     -71.975 -62.027 -24.699  0.00  0.00    +0.000 OA
ATOM     19  O   UNL     1     -72.198 -60.232 -23.454  0.00  0.00    +0.000 OA
ENDBRANCH  14  17
ENDBRANCH   3  11
BRANCH   2  20
ATOM     20  C   UNL     1     -69.517 -57.146 -32.137  0.00  0.00    +0.000 A 
ATOM     21  C   UNL     1     -70.117 -56.722 -33.327  0.00  0.00    +0.000 A 
ATOM     22  C   UNL     1     -69.473 -56.854 -34.557  0.00  0.00    +0.000 A 
ATOM     23  C   UNL     1     -68.198 -57.410 -34.623  0.00  0.00    +0.000 A 
ATOM     24  C   UNL     1     -67.576 -57.829 -33.451  0.00  0.00    +0.000 A 
ATOM     25  C   UNL     1     -68.229 -57.693 -32.226  0.00  0.00    +0.000 A 
BRANCH  23  26
ATOM     26  O   UNL     1     -67.480 -57.583 -35.779  0.00  0.00    +0.000 OA
BRANCH  26  27
ATOM     27  C   UNL     1     -67.979 -56.964 -36.846  0.00  0.00    +0.000 C 
ATOM     28  C   UNL     1     -68.538 -56.246 -38.080  0.00  0.00    +0.000 C 
ENDBRANCH  26  27
ENDBRANCH  23  26
ENDBRANCH   2  20
BRANCH   3  29
ATOM     29  O   UNL     1     -73.270 -57.461 -29.798  0.00  0.00    +0.000 OA
ATOM     30  H   UNL     1     -73.822 -57.124 -29.072  0.00  0.00    +0.000 HD
ENDBRANCH   3  29
TORSDOF 6
ENDMDL
MODEL 2
REMARK VINA RESULT:      -6.1     25.704     30.732
REMARK  Name = 5109870_Ethoxyphenyl.pdbqt.pdb
REMARK  6 active torsions:
REMARK  status: ('A' for Active; 'I' for Inactive)
REMARK    1  A    between atoms: N_2  and  C_22
REMARK    2  A    between atoms: C_3  and  O_11
REMARK    3  A    between atoms: C_3  and  C_13
REMARK    4  A    between atoms: C_16  and  N_19
REMARK    5  A    between atoms: C_25  and  O_28
REMARK    6  A    between atoms: O_28  and  C_29
REMARK                            x       y       z     vdW  Elec       q    Type
REMARK                         _______ _______ _______ _____ _____    ______ ____
ROOT
ATOM      1  N   UNL     1     -63.634 -46.588 -57.776  0.00  0.00    +0.000 N 
ATOM      2  N   UNL     1     -65.774 -46.161 -58.774  0.00  0.00    +0.000 N 
ATOM      3  C   UNL     1     -64.288 -45.624 -56.858  0.00  0.00    +0.000 C 
ATOM      4  C   UNL     1     -64.524 -46.712 -58.974  0.00  0.00    +0.000 C 
ATOM      5  C   UNL     1     -65.607 -45.538 -57.488  0.00  0.00    +0.000 C 
ATOM      6  C   UNL     1     -62.237 -46.360 -58.140  0.00  0.00    +0.000 C 
ATOM      7  C   UNL     1     -63.970 -46.923 -60.271  0.00  0.00    +0.000 C 
ATOM      8  C   UNL     1     -61.115 -46.331 -59.192  0.00  0.00    +0.000 C 
ATOM      9  C   UNL     1     -62.720 -46.912 -61.165  0.00  0.00    +0.000 C 
ATOM     10  C   UNL     1     -61.304 -46.611 -60.680  0.00  0.00    +0.000 C 
ENDROOT
BRANCH   3  11
ATOM     11  C   UNL     1     -64.296 -46.129 -55.435  0.00  0.00    +0.000 A 
ATOM     12  C   UNL     1     -64.637 -47.454 -55.130  0.00  0.00    +0.000 A 
ATOM     13  C   UNL     1     -64.600 -47.924 -53.819  0.00  0.00    +0.000 A 
ATOM     14  C   UNL     1     -64.204 -47.057 -52.805  0.00  0.00    +0.000 A 
ATOM     15  C   UNL     1     -63.845 -45.740 -53.073  0.00  0.00    +0.000 A 
ATOM     16  C   UNL     1     -63.887 -45.287 -54.389  0.00  0.00    +0.000 A 
BRANCH  14  17
ATOM     17  N   UNL     1     -64.165 -47.538 -51.438  0.00  0.00    +0.000 N 
ATOM     18  O   UNL     1     -63.213 -47.180 -50.730  0.00  0.00    +0.000 OA
ATOM     19  O   UNL     1     -65.086 -48.276 -51.060  0.00  0.00    +0.000 OA
ENDBRANCH  14  17
ENDBRANCH   3  11
BRANCH   2  20
ATOM     20  C   UNL     1     -66.819 -45.853 -59.660  0.00  0.00    +0.000 A 
ATOM     21  C   UNL     1     -67.842 -46.763 -59.946  0.00  0.00    +0.000 A 
ATOM     22  C   UNL     1     -68.888 -46.439 -60.809  0.00  0.00    +0.000 A 
ATOM     23  C   UNL     1     -68.939 -45.181 -61.405  0.00  0.00    +0.000 A 
ATOM     24  C   UNL     1     -67.939 -44.254 -61.127  0.00  0.00    +0.000 A 
ATOM     25  C   UNL     1     -66.897 -44.589 -60.262  0.00  0.00    +0.000 A 
BRANCH  23  26
ATOM     26  O   UNL     1     -69.921 -44.763 -62.265  0.00  0.00    +0.000 OA
BRANCH  26  27
ATOM     27  C   UNL     1     -70.479 -45.729 -62.991  0.00  0.00    +0.000 C 
ATOM     28  C   UNL     1     -71.107 -46.842 -63.838  0.00  0.00    +0.000 C 
ENDBRANCH  26  27
ENDBRANCH  23  26
ENDBRANCH   2  20
BRANCH   3  29
ATOM     29  O   UNL     1     -63.702 -44.329 -56.899  0.00  0.00    +0.000 OA
ATOM     30  H   UNL     1     -63.684 -44.030 -55.975  0.00  0.00    +0.000 HD
ENDBRANCH   3  29
TORSDOF 6
ENDMDL
MODEL 3
REMARK VINA RESULT:      -6.0     13.119     16.440
REMARK  Name = 5109870_Ethoxyphenyl.pdbqt.pdb
REMARK  6 active torsions:
REMARK  status: ('A' for Active; 'I' for Inactive)
REMARK    1  A    between atoms: N_2  and  C_22
REMARK    2  A    between atoms: C_3  and  O_11
REMARK    3  A    between atoms: C_3  and  C_13
REMARK    4  A    between atoms: C_16  and  N_19
REMARK    5  A    between atoms: C_25  and  O_28
REMARK    6  A    between atoms: O_28  and  C_29
REMARK                            x       y       z     vdW  Elec       q    Type
REMARK                         _______ _______ _______ _____ _____    ______ ____
ROOT
ATOM      1  N   UNL     1     -62.803 -56.089 -15.129  0.00  0.00    +0.000 N 
ATOM      2  N   UNL     1     -64.465 -54.750 -16.227  0.00  0.00    +0.000 N 
ATOM      3  C   UNL     1     -64.024 -56.261 -14.305  0.00  0.00    +0.000 C 
ATOM      4  C   UNL     1     -63.116 -55.036 -16.148  0.00  0.00    +0.000 C 
ATOM      5  C   UNL     1     -64.983 -55.517 -15.125  0.00  0.00    +0.000 C 
ATOM      6  C   UNL     1     -61.534 -55.842 -14.445  0.00  0.00    +0.000 C 
ATOM      7  C   UNL     1     -62.106 -54.133 -16.593  0.00  0.00    +0.000 C 
ATOM      8  C   UNL     1     -60.197 -55.091 -14.335  0.00  0.00    +0.000 C 
ATOM      9  C   UNL     1     -60.706 -53.541 -16.369  0.00  0.00    +0.000 C 
ATOM     10  C   UNL     1     -59.745 -53.969 -15.264  0.00  0.00    +0.000 C 
ENDROOT
BRANCH   3  11
ATOM     11  C   UNL     1     -64.358 -57.720 -14.104  0.00  0.00    +0.000 A 
ATOM     12  C   UNL     1     -64.406 -58.290 -12.824  0.00  0.00    +0.000 A 
ATOM     13  C   UNL     1     -64.757 -59.626 -12.644  0.00  0.00    +0.000 A 
ATOM     14  C   UNL     1     -65.076 -60.394 -13.760  0.00  0.00    +0.000 A 
ATOM     15  C   UNL     1     -65.054 -59.856 -15.043  0.00  0.00    +0.000 A 
ATOM     16  C   UNL     1     -64.701 -58.520 -15.205  0.00  0.00    +0.000 A 
BRANCH  14  17
ATOM     17  N   UNL     1     -65.441 -61.786 -13.580  0.00  0.00    +0.000 N 
ATOM     18  O   UNL     1     -64.759 -62.638 -14.166  0.00  0.00    +0.000 OA
ATOM     19  O   UNL     1     -66.412 -62.037 -12.853  0.00  0.00    +0.000 OA
ENDBRANCH  14  17
ENDBRANCH   3  11
BRANCH   2  20
ATOM     20  C   UNL     1     -65.171 -53.710 -16.852  0.00  0.00    +0.000 A 
ATOM     21  C   UNL     1     -65.566 -52.560 -16.160  0.00  0.00    +0.000 A 
ATOM     22  C   UNL     1     -66.246 -51.522 -16.796  0.00  0.00    +0.000 A 
ATOM     23  C   UNL     1     -66.542 -51.609 -18.154  0.00  0.00    +0.000 A 
ATOM     24  C   UNL     1     -66.150 -52.738 -18.866  0.00  0.00    +0.000 A 
ATOM     25  C   UNL     1     -65.470 -53.770 -18.220  0.00  0.00    +0.000 A 
BRANCH  23  26
ATOM     26  O   UNL     1     -67.205 -50.647 -18.872  0.00  0.00    +0.000 OA
BRANCH  26  27
ATOM     27  C   UNL     1     -68.121 -51.111 -19.719  0.00  0.00    +0.000 C 
ATOM     28  C   UNL     1     -69.166 -51.641 -20.708  0.00  0.00    +0.000 C 
ENDBRANCH  26  27
ENDBRANCH  23  26
ENDBRANCH   2  20
BRANCH   3  29
ATOM     29  O   UNL     1     -63.941 -55.614 -13.041  0.00  0.00    +0.000 OA
ATOM     30  H   UNL     1     -63.440 -56.225 -12.477  0.00  0.00    +0.000 HD
ENDBRANCH   3  29
TORSDOF 6
ENDMDL
MODEL 4
REMARK VINA RESULT:      -6.0     25.360     31.260
REMARK  Name = 5109870_Ethoxyphenyl.pdbqt.pdb
REMARK  6 active torsions:
REMARK  status: ('A' for Active; 'I' for Inactive)
REMARK    1  A    between atoms: N_2  and  C_22
REMARK    2  A    between atoms: C_3  and  O_11
REMARK    3  A    between atoms: C_3  and  C_13
REMARK    4  A    between atoms: C_16  and  N_19
REMARK    5  A    between atoms: C_25  and  O_28
REMARK    6  A    between atoms: O_28  and  C_29
REMARK                            x       y       z     vdW  Elec       q    Type
REMARK                         _______ _______ _______ _____ _____    ______ ____
ROOT
ATOM      1  N   UNL     1     -64.691 -46.199 -59.317  0.00  0.00    +0.000 N 
ATOM      2  N   UNL     1     -64.871 -46.536 -56.947  0.00  0.00    +0.000 N 
ATOM      3  C   UNL     1     -65.930 -46.996 -59.147  0.00  0.00    +0.000 C 
ATOM      4  C   UNL     1     -64.039 -46.125 -57.970  0.00  0.00    +0.000 C 
ATOM      5  C   UNL     1     -66.004 -47.030 -57.685  0.00  0.00    +0.000 C 
ATOM      6  C   UNL     1     -63.754 -46.590 -60.369  0.00  0.00    +0.000 C 
ATOM      7  C   UNL     1     -62.619 -46.106 -57.851  0.00  0.00    +0.000 C 
ATOM      8  C   UNL     1     -62.316 -46.833 -60.859  0.00  0.00    +0.000 C 
ATOM      9  C   UNL     1     -61.257 -46.326 -58.530  0.00  0.00    +0.000 C 
ATOM     10  C   UNL     1     -61.065 -46.699 -59.997  0.00  0.00    +0.000 C 
ENDROOT
BRANCH   3  11
ATOM     11  C   UNL     1     -67.109 -46.341 -59.827  0.00  0.00    +0.000 A 
ATOM     12  C   UNL     1     -67.036 -45.031 -60.320  0.00  0.00    +0.000 A 
ATOM     13  C   UNL     1     -68.113 -44.451 -60.985  0.00  0.00    +0.000 A 
ATOM     14  C   UNL     1     -69.274 -45.198 -61.167  0.00  0.00    +0.000 A 
ATOM     15  C   UNL     1     -69.375 -46.506 -60.704  0.00  0.00    +0.000 A 
ATOM     16  C   UNL     1     -68.289 -47.071 -60.043  0.00  0.00    +0.000 A 
BRANCH  14  17
ATOM     17  N   UNL     1     -70.400 -44.600 -61.856  0.00  0.00    +0.000 N 
ATOM     18  O   UNL     1     -71.100 -45.340 -62.561  0.00  0.00    +0.000 OA
ATOM     19  O   UNL     1     -70.595 -43.386 -61.697  0.00  0.00    +0.000 OA
ENDBRANCH  14  17
ENDBRANCH   3  11
BRANCH   2  20
ATOM     20  C   UNL     1     -64.625 -46.843 -55.600  0.00  0.00    +0.000 A 
ATOM     21  C   UNL     1     -64.248 -45.865 -54.674  0.00  0.00    +0.000 A 
ATOM     22  C   UNL     1     -64.028 -46.176 -53.332  0.00  0.00    +0.000 A 
ATOM     23  C   UNL     1     -64.190 -47.484 -52.881  0.00  0.00    +0.000 A 
ATOM     24  C   UNL     1     -64.575 -48.472 -53.782  0.00  0.00    +0.000 A 
ATOM     25  C   UNL     1     -64.792 -48.150 -55.122  0.00  0.00    +0.000 A 
BRANCH  23  26
ATOM     26  O   UNL     1     -64.000 -47.894 -51.587  0.00  0.00    +0.000 OA
BRANCH  26  27
ATOM     27  C   UNL     1     -63.259 -47.075 -50.843  0.00  0.00    +0.000 C 
ATOM     28  C   UNL     1     -62.393 -46.141 -49.989  0.00  0.00    +0.000 C 
ENDBRANCH  26  27
ENDBRANCH  23  26
ENDBRANCH   2  20
BRANCH   3  29
ATOM     29  O   UNL     1     -65.800 -48.335 -59.606  0.00  0.00    +0.000 OA
ATOM     30  H   UNL     1     -66.428 -48.848 -59.072  0.00  0.00    +0.000 HD
ENDBRANCH   3  29
TORSDOF 6
ENDMDL
MODEL 5
REMARK VINA RESULT:      -5.6     18.155     25.796
REMARK  Name = 5109870_Ethoxyphenyl.pdbqt.pdb
REMARK  6 active torsions:
REMARK  status: ('A' for Active; 'I' for Inactive)
REMARK    1  A    between atoms: N_2  and  C_22
REMARK    2  A    between atoms: C_3  and  O_11
REMARK    3  A    between atoms: C_3  and  C_13
REMARK    4  A    between atoms: C_16  and  N_19
REMARK    5  A    between atoms: C_25  and  O_28
REMARK    6  A    between atoms: O_28  and  C_29
REMARK                            x       y       z     vdW  Elec       q    Type
REMARK                         _______ _______ _______ _____ _____    ______ ____
ROOT
ATOM      1  N   UNL     1     -59.126 -56.707 -52.945  0.00  0.00    +0.000 N 
ATOM      2  N   UNL     1     -60.791 -56.676 -51.217  0.00  0.00    +0.000 N 
ATOM      3  C   UNL     1     -60.200 -57.597 -53.447  0.00  0.00    +0.000 C 
ATOM      4  C   UNL     1     -59.488 -56.346 -51.538  0.00  0.00    +0.000 C 
ATOM      5  C   UNL     1     -61.196 -57.404 -52.391  0.00  0.00    +0.000 C 
ATOM      6  C   UNL     1     -57.740 -57.157 -53.066  0.00  0.00    +0.000 C 
ATOM      7  C   UNL     1     -58.476 -56.152 -50.553  0.00  0.00    +0.000 C 
ATOM      8  C   UNL     1     -56.328 -57.316 -52.476  0.00  0.00    +0.000 C 
ATOM      9  C   UNL     1     -57.000 -56.327 -50.159  0.00  0.00    +0.000 C 
ATOM     10  C   UNL     1     -55.919 -56.908 -51.064  0.00  0.00    +0.000 C 
ENDROOT
BRANCH   3  11
ATOM     11  C   UNL     1     -60.655 -57.195 -54.830  0.00  0.00    +0.000 A 
ATOM     12  C   UNL     1     -59.883 -57.478 -55.966  0.00  0.00    +0.000 A 
ATOM     13  C   UNL     1     -60.330 -57.142 -57.241  0.00  0.00    +0.000 A 
ATOM     14  C   UNL     1     -61.571 -56.528 -57.380  0.00  0.00    +0.000 A 
ATOM     15  C   UNL     1     -62.370 -56.247 -56.276  0.00  0.00    +0.000 A 
ATOM     16  C   UNL     1     -61.908 -56.589 -55.008  0.00  0.00    +0.000 A 
BRANCH  14  17
ATOM     17  N   UNL     1     -62.043 -56.174 -58.705  0.00  0.00    +0.000 N 
ATOM     18  O   UNL     1     -61.250 -55.594 -59.460  0.00  0.00    +0.000 OA
ATOM     19  O   UNL     1     -63.208 -56.473 -59.000  0.00  0.00    +0.000 OA
ENDBRANCH  14  17
ENDBRANCH   3  11
BRANCH   2  20
ATOM     20  C   UNL     1     -61.473 -56.733 -49.992  0.00  0.00    +0.000 A 
ATOM     21  C   UNL     1     -61.339 -57.816 -49.117  0.00  0.00    +0.000 A 
ATOM     22  C   UNL     1     -62.003 -57.852 -47.891  0.00  0.00    +0.000 A 
ATOM     23  C   UNL     1     -62.817 -56.790 -47.505  0.00  0.00    +0.000 A 
ATOM     24  C   UNL     1     -62.957 -55.696 -48.353  0.00  0.00    +0.000 A 
ATOM     25  C   UNL     1     -62.288 -55.670 -49.578  0.00  0.00    +0.000 A 
BRANCH  23  26
ATOM     26  O   UNL     1     -63.511 -56.727 -46.325  0.00  0.00    +0.000 OA
BRANCH  26  27
ATOM     27  C   UNL     1     -62.803 -57.039 -45.241  0.00  0.00    +0.000 C 
ATOM     28  C   UNL     1     -62.002 -57.405 -43.986  0.00  0.00    +0.000 C 
ENDBRANCH  26  27
ENDBRANCH  23  26
ENDBRANCH   2  20
BRANCH   3  29
ATOM     29  O   UNL     1     -59.831 -58.971 -53.449  0.00  0.00    +0.000 OA
ATOM     30  H   UNL     1     -59.457 -59.131 -54.331  0.00  0.00    +0.000 HD
ENDBRANCH   3  29
TORSDOF 6
ENDMDL
MODEL 6
REMARK VINA RESULT:      -5.6     36.172     40.990
REMARK  Name = 5109870_Ethoxyphenyl.pdbqt.pdb
REMARK  6 active torsions:
REMARK  status: ('A' for Active; 'I' for Inactive)
REMARK    1  A    between atoms: N_2  and  C_22
REMARK    2  A    between atoms: C_3  and  O_11
REMARK    3  A    between atoms: C_3  and  C_13
REMARK    4  A    between atoms: C_16  and  N_19
REMARK    5  A    between atoms: C_25  and  O_28
REMARK    6  A    between atoms: O_28  and  C_29
REMARK                            x       y       z     vdW  Elec       q    Type
REMARK                         _______ _______ _______ _____ _____    ______ ____
ROOT
ATOM      1  N   UNL     1     -66.205 -61.083 -70.921  0.00  0.00    +0.000 N 
ATOM      2  N   UNL     1     -64.493 -62.757 -70.766  0.00  0.00    +0.000 N 
ATOM      3  C   UNL     1     -66.738 -62.072 -69.953  0.00  0.00    +0.000 C 
ATOM      4  C   UNL     1     -64.944 -61.664 -71.481  0.00  0.00    +0.000 C 
ATOM      5  C   UNL     1     -65.578 -62.960 -69.843  0.00  0.00    +0.000 C 
ATOM      6  C   UNL     1     -67.100 -60.583 -71.964  0.00  0.00    +0.000 C 
ATOM      7  C   UNL     1     -64.567 -61.416 -72.833  0.00  0.00    +0.000 C 
ATOM      8  C   UNL     1     -67.360 -60.186 -73.427  0.00  0.00    +0.000 C 
ATOM      9  C   UNL     1     -64.983 -60.908 -74.223  0.00  0.00    +0.000 C 
ATOM     10  C   UNL     1     -66.347 -60.313 -74.561  0.00  0.00    +0.000 C 
ENDROOT
BRANCH   3  11
ATOM     11  C   UNL     1     -67.157 -61.414 -68.660  0.00  0.00    +0.000 A 
ATOM     12  C   UNL     1     -68.456 -60.918 -68.478  0.00  0.00    +0.000 A 
ATOM     13  C   UNL     1     -68.848 -60.352 -67.268  0.00  0.00    +0.000 A 
ATOM     14  C   UNL     1     -67.930 -60.295 -66.223  0.00  0.00    +0.000 A 
ATOM     15  C   UNL     1     -66.638 -60.791 -66.363  0.00  0.00    +0.000 A 
ATOM     16  C   UNL     1     -66.263 -61.354 -67.580  0.00  0.00    +0.000 A 
BRANCH  14  17
ATOM     17  N   UNL     1     -68.330 -59.705 -64.960  0.00  0.00    +0.000 N 
ATOM     18  O   UNL     1     -69.005 -58.667 -65.000  0.00  0.00    +0.000 OA
ATOM     19  O   UNL     1     -67.974 -60.276 -63.920  0.00  0.00    +0.000 OA
ENDBRANCH  14  17
ENDBRANCH   3  11
BRANCH   2  20
ATOM     20  C   UNL     1     -63.515 -63.725 -71.044  0.00  0.00    +0.000 A 
ATOM     21  C   UNL     1     -62.232 -63.665 -70.490  0.00  0.00    +0.000 A 
ATOM     22  C   UNL     1     -61.275 -64.645 -70.755  0.00  0.00    +0.000 A 
ATOM     23  C   UNL     1     -61.587 -65.721 -71.582  0.00  0.00    +0.000 A 
ATOM     24  C   UNL     1     -62.860 -65.808 -72.136  0.00  0.00    +0.000 A 
ATOM     25  C   UNL     1     -63.810 -64.823 -71.865  0.00  0.00    +0.000 A 
BRANCH  23  26
ATOM     26  O   UNL     1     -60.722 -66.735 -71.904  0.00  0.00    +0.000 OA
BRANCH  26  27
ATOM     27  C   UNL     1     -59.698 -66.374 -72.674  0.00  0.00    +0.000 C 
ATOM     28  C   UNL     1     -58.510 -65.954 -73.548  0.00  0.00    +0.000 C 
ENDBRANCH  26  27
ENDBRANCH  23  26
ENDBRANCH   2  20
BRANCH   3  29
ATOM     29  O   UNL     1     -67.820 -62.834 -70.471  0.00  0.00    +0.000 OA
ATOM     30  H   UNL     1     -67.725 -63.714 -70.071  0.00  0.00    +0.000 HD
ENDBRANCH   3  29
TORSDOF 6
ENDMDL
MODEL 7
REMARK VINA RESULT:      -5.5     23.500     29.049
REMARK  Name = 5109870_Ethoxyphenyl.pdbqt.pdb
REMARK  6 active torsions:
REMARK  status: ('A' for Active; 'I' for Inactive)
REMARK    1  A    between atoms: N_2  and  C_22
REMARK    2  A    between atoms: C_3  and  O_11
REMARK    3  A    between atoms: C_3  and  C_13
REMARK    4  A    between atoms: C_16  and  N_19
REMARK    5  A    between atoms: C_25  and  O_28
REMARK    6  A    between atoms: O_28  and  C_29
REMARK                            x       y       z     vdW  Elec       q    Type
REMARK                         _______ _______ _______ _____ _____    ______ ____
ROOT
ATOM      1  N   UNL     1     -64.857 -47.742 -55.500  0.00  0.00    +0.000 N 
ATOM      2  N   UNL     1     -63.969 -46.396 -53.722  0.00  0.00    +0.000 N 
ATOM      3  C   UNL     1     -64.802 -46.372 -56.062  0.00  0.00    +0.000 C 
ATOM      4  C   UNL     1     -64.506 -47.626 -54.048  0.00  0.00    +0.000 C 
ATOM      5  C   UNL     1     -64.139 -45.676 -54.957  0.00  0.00    +0.000 C 
ATOM      6  C   UNL     1     -66.066 -48.534 -55.719  0.00  0.00    +0.000 C 
ATOM      7  C   UNL     1     -65.108 -48.487 -53.084  0.00  0.00    +0.000 C 
ATOM      8  C   UNL     1     -67.148 -49.498 -55.201  0.00  0.00    +0.000 C 
ATOM      9  C   UNL     1     -66.221 -49.498 -52.764  0.00  0.00    +0.000 C 
ATOM     10  C   UNL     1     -67.252 -50.007 -53.767  0.00  0.00    +0.000 C 
ENDROOT
BRANCH   3  11
ATOM     11  C   UNL     1     -64.053 -46.338 -57.373  0.00  0.00    +0.000 A 
ATOM     12  C   UNL     1     -62.654 -46.251 -57.415  0.00  0.00    +0.000 A 
ATOM     13  C   UNL     1     -61.968 -46.264 -58.627  0.00  0.00    +0.000 A 
ATOM     14  C   UNL     1     -62.693 -46.379 -59.810  0.00  0.00    +0.000 A 
ATOM     15  C   UNL     1     -64.081 -46.483 -59.804  0.00  0.00    +0.000 A 
ATOM     16  C   UNL     1     -64.750 -46.468 -58.584  0.00  0.00    +0.000 A 
BRANCH  14  17
ATOM     17  N   UNL     1     -61.986 -46.392 -61.075  0.00  0.00    +0.000 N 
ATOM     18  O   UNL     1     -62.053 -47.422 -61.760  0.00  0.00    +0.000 OA
ATOM     19  O   UNL     1     -61.359 -45.372 -61.395  0.00  0.00    +0.000 OA
ENDBRANCH  14  17
ENDBRANCH   3  11
BRANCH   2  20
ATOM     20  C   UNL     1     -63.716 -45.777 -52.488  0.00  0.00    +0.000 A 
ATOM     21  C   UNL     1     -64.618 -44.879 -51.909  0.00  0.00    +0.000 A 
ATOM     22  C   UNL     1     -64.367 -44.287 -50.672  0.00  0.00    +0.000 A 
ATOM     23  C   UNL     1     -63.200 -44.591 -49.975  0.00  0.00    +0.000 A 
ATOM     24  C   UNL     1     -62.293 -45.490 -50.525  0.00  0.00    +0.000 A 
ATOM     25  C   UNL     1     -62.553 -46.076 -51.764  0.00  0.00    +0.000 A 
BRANCH  23  26
ATOM     26  O   UNL     1     -62.860 -44.066 -48.754  0.00  0.00    +0.000 OA
BRANCH  26  27
ATOM     27  C   UNL     1     -62.396 -44.949 -47.874  0.00  0.00    +0.000 C 
ATOM     28  C   UNL     1     -61.870 -45.960 -46.848  0.00  0.00    +0.000 C 
ENDBRANCH  26  27
ENDBRANCH  23  26
ENDBRANCH   2  20
BRANCH   3  29
ATOM     29  O   UNL     1     -66.087 -45.787 -56.234  0.00  0.00    +0.000 OA
ATOM     30  H   UNL     1     -66.160 -45.613 -57.187  0.00  0.00    +0.000 HD
ENDBRANCH   3  29
TORSDOF 6
ENDMDL
MODEL 8
REMARK VINA RESULT:      -5.4     47.012     54.069
REMARK  Name = 5109870_Ethoxyphenyl.pdbqt.pdb
REMARK  6 active torsions:
REMARK  status: ('A' for Active; 'I' for Inactive)
REMARK    1  A    between atoms: N_2  and  C_22
REMARK    2  A    between atoms: C_3  and  O_11
REMARK    3  A    between atoms: C_3  and  C_13
REMARK    4  A    between atoms: C_16  and  N_19
REMARK    5  A    between atoms: C_25  and  O_28
REMARK    6  A    between atoms: O_28  and  C_29
REMARK                            x       y       z     vdW  Elec       q    Type
REMARK                         _______ _______ _______ _____ _____    ______ ____
ROOT
ATOM      1  N   UNL     1     -49.513 -60.223 -80.274  0.00  0.00    +0.000 N 
ATOM      2  N   UNL     1     -49.954 -61.195 -78.124  0.00  0.00    +0.000 N 
ATOM      3  C   UNL     1     -48.251 -60.911 -79.910  0.00  0.00    +0.000 C 
ATOM      4  C   UNL     1     -50.406 -60.299 -79.074  0.00  0.00    +0.000 C 
ATOM      5  C   UNL     1     -48.673 -61.561 -78.667  0.00  0.00    +0.000 C 
ATOM      6  C   UNL     1     -49.431 -58.870 -80.822  0.00  0.00    +0.000 C 
ATOM      7  C   UNL     1     -51.305 -59.235 -78.768  0.00  0.00    +0.000 C 
ATOM      8  C   UNL     1     -49.944 -57.421 -80.894  0.00  0.00    +0.000 C 
ATOM      9  C   UNL     1     -51.725 -57.779 -79.024  0.00  0.00    +0.000 C 
ATOM     10  C   UNL     1     -51.074 -56.850 -80.044  0.00  0.00    +0.000 C 
ENDROOT
BRANCH   3  11
ATOM     11  C   UNL     1     -47.800 -61.857 -80.999  0.00  0.00    +0.000 A 
ATOM     12  C   UNL     1     -46.635 -61.617 -81.740  0.00  0.00    +0.000 A 
ATOM     13  C   UNL     1     -46.202 -62.516 -82.712  0.00  0.00    +0.000 A 
ATOM     14  C   UNL     1     -46.941 -63.674 -82.934  0.00  0.00    +0.000 A 
ATOM     15  C   UNL     1     -48.094 -63.951 -82.206  0.00  0.00    +0.000 A 
ATOM     16  C   UNL     1     -48.511 -63.043 -81.238  0.00  0.00    +0.000 A 
BRANCH  14  17
ATOM     17  N   UNL     1     -46.498 -64.614 -83.945  0.00  0.00    +0.000 N 
ATOM     18  O   UNL     1     -45.289 -64.880 -83.991  0.00  0.00    +0.000 OA
ATOM     19  O   UNL     1     -47.355 -65.094 -84.700  0.00  0.00    +0.000 OA
ENDBRANCH  14  17
ENDBRANCH   3  11
BRANCH   2  20
ATOM     20  C   UNL     1     -50.328 -61.420 -76.790  0.00  0.00    +0.000 A 
ATOM     21  C   UNL     1     -51.390 -62.265 -76.450  0.00  0.00    +0.000 A 
ATOM     22  C   UNL     1     -51.739 -62.501 -75.121  0.00  0.00    +0.000 A 
ATOM     23  C   UNL     1     -51.022 -61.896 -74.091  0.00  0.00    +0.000 A 
ATOM     24  C   UNL     1     -49.954 -61.060 -74.405  0.00  0.00    +0.000 A 
ATOM     25  C   UNL     1     -49.613 -60.832 -75.738  0.00  0.00    +0.000 A 
BRANCH  23  26
ATOM     26  O   UNL     1     -51.282 -62.062 -72.756  0.00  0.00    +0.000 OA
BRANCH  26  27
ATOM     27  C   UNL     1     -52.376 -62.769 -72.481  0.00  0.00    +0.000 C 
ATOM     28  C   UNL     1     -53.646 -63.572 -72.175  0.00  0.00    +0.000 C 
ENDBRANCH  26  27
ENDBRANCH  23  26
ENDBRANCH   2  20
BRANCH   3  29
ATOM     29  O   UNL     1     -47.195 -60.013 -79.594  0.00  0.00    +0.000 OA
ATOM     30  H   UNL     1     -47.564 -59.416 -78.922  0.00  0.00    +0.000 HD
ENDBRANCH   3  29
TORSDOF 6
ENDMDL
MODEL 9
REMARK VINA RESULT:      -5.4     15.014     18.735
REMARK  Name = 5109870_Ethoxyphenyl.pdbqt.pdb
REMARK  6 active torsions:
REMARK  status: ('A' for Active; 'I' for Inactive)
REMARK    1  A    between atoms: N_2  and  C_22
REMARK    2  A    between atoms: C_3  and  O_11
REMARK    3  A    between atoms: C_3  and  C_13
REMARK    4  A    between atoms: C_16  and  N_19
REMARK    5  A    between atoms: C_25  and  O_28
REMARK    6  A    between atoms: O_28  and  C_29
REMARK                            x       y       z     vdW  Elec       q    Type
REMARK                         _______ _______ _______ _____ _____    ______ ____
ROOT
ATOM      1  N   UNL     1     -62.848 -56.768 -14.249  0.00  0.00    +0.000 N 
ATOM      2  N   UNL     1     -64.199 -58.741 -14.044  0.00  0.00    +0.000 N 
ATOM      3  C   UNL     1     -63.425 -56.966 -15.600  0.00  0.00    +0.000 C 
ATOM      4  C   UNL     1     -63.226 -57.970 -13.439  0.00  0.00    +0.000 C 
ATOM      5  C   UNL     1     -64.313 -58.099 -15.327  0.00  0.00    +0.000 C 
ATOM      6  C   UNL     1     -61.425 -56.449 -14.143  0.00  0.00    +0.000 C 
ATOM      7  C   UNL     1     -62.343 -58.481 -12.443  0.00  0.00    +0.000 C 
ATOM      8  C   UNL     1     -60.058 -56.637 -13.463  0.00  0.00    +0.000 C 
ATOM      9  C   UNL     1     -60.928 -58.486 -11.843  0.00  0.00    +0.000 C 
ATOM     10  C   UNL     1     -59.775 -57.611 -12.324  0.00  0.00    +0.000 C 
ENDROOT
BRANCH   3  11
ATOM     11  C   UNL     1     -64.121 -55.720 -16.096  0.00  0.00    +0.000 A 
ATOM     12  C   UNL     1     -63.601 -54.964 -17.155  0.00  0.00    +0.000 A 
ATOM     13  C   UNL     1     -64.271 -53.841 -17.635  0.00  0.00    +0.000 A 
ATOM     14  C   UNL     1     -65.483 -53.481 -17.053  0.00  0.00    +0.000 A 
ATOM     15  C   UNL     1     -66.036 -54.218 -16.010  0.00  0.00    +0.000 A 
ATOM     16  C   UNL     1     -65.353 -55.337 -15.543  0.00  0.00    +0.000 A 
BRANCH  14  17
ATOM     17  N   UNL     1     -66.186 -52.312 -17.545  0.00  0.00    +0.000 N 
ATOM     18  O   UNL     1     -66.385 -51.384 -16.749  0.00  0.00    +0.000 OA
ATOM     19  O   UNL     1     -66.543 -52.312 -18.732  0.00  0.00    +0.000 OA
ENDBRANCH  14  17
ENDBRANCH   3  11
BRANCH   2  20
ATOM     20  C   UNL     1     -64.680 -60.032 -13.774  0.00  0.00    +0.000 A 
ATOM     21  C   UNL     1     -64.246 -61.151 -14.492  0.00  0.00    +0.000 A 
ATOM     22  C   UNL     1     -64.713 -62.433 -14.200  0.00  0.00    +0.000 A 
ATOM     23  C   UNL     1     -65.627 -62.626 -13.167  0.00  0.00    +0.000 A 
ATOM     24  C   UNL     1     -66.065 -61.529 -12.431  0.00  0.00    +0.000 A 
ATOM     25  C   UNL     1     -65.591 -60.251 -12.732  0.00  0.00    +0.000 A 
BRANCH  23  26
ATOM     26  O   UNL     1     -66.145 -63.840 -12.800  0.00  0.00    +0.000 OA
BRANCH  26  27
ATOM     27  C   UNL     1     -65.814 -64.245 -11.576  0.00  0.00    +0.000 C 
ATOM     28  C   UNL     1     -65.444 -64.722 -10.167  0.00  0.00    +0.000 C 
ENDBRANCH  26  27
ENDBRANCH  23  26
ENDBRANCH   2  20
BRANCH   3  29
ATOM     29  O   UNL     1     -62.466 -57.388 -16.561  0.00  0.00    +0.000 OA
ATOM     30  H   UNL     1     -62.816 -57.089 -17.416  0.00  0.00    +0.000 HD
ENDBRANCH   3  29
TORSDOF 6
ENDMDL
