MODEL 1
REMARK VINA RESULT:      -6.0      0.000      0.000
REMARK  Name = 5280445_Luteolin.pdbqt.pdb
REMARK  5 active torsions:
REMARK  status: ('A' for Active; 'I' for Inactive)
REMARK    1  A    between atoms: C_5  and  C_12
REMARK    2  A    between atoms: C_8  and  O_22
REMARK    3  A    between atoms: C_10  and  O_24
REMARK    4  A    between atoms: C_15  and  O_18
REMARK    5  A    between atoms: C_17  and  O_20
REMARK                            x       y       z     vdW  Elec       q    Type
REMARK                         _______ _______ _______ _____ _____    ______ ____
ROOT
ATOM      1  O   UNL     1     -67.921 -55.891 -37.218  0.00  0.00    +0.000 OA
ATOM      2  O   UNL     1     -67.810 -59.364 -39.419  0.00  0.00    +0.000 OA
ATOM      3  C   UNL     1     -67.507 -56.982 -39.416  0.00  0.00    +0.000 A 
ATOM      4  C   UNL     1     -67.575 -55.846 -38.571  0.00  0.00    +0.000 A 
ATOM      5  C   UNL     1     -68.226 -57.128 -36.638  0.00  0.00    +0.000 A 
ATOM      6  C   UNL     1     -67.823 -58.298 -38.830  0.00  0.00    +0.000 A 
ATOM      7  C   UNL     1     -68.145 -58.120 -37.460  0.00  0.00    +0.000 A 
ATOM      8  C   UNL     1     -67.151 -56.850 -40.758  0.00  0.00    +0.000 A 
ATOM      9  C   UNL     1     -67.284 -54.588 -39.088  0.00  0.00    +0.000 A 
ATOM     10  C   UNL     1     -66.930 -54.472 -40.431  0.00  0.00    +0.000 A 
ATOM     11  C   UNL     1     -66.862 -55.587 -41.267  0.00  0.00    +0.000 A 
ENDROOT
BRANCH   5  12
ATOM     12  C   UNL     1     -68.586 -57.172 -35.227  0.00  0.00    +0.000 A 
ATOM     13  C   UNL     1     -67.740 -57.786 -34.299  0.00  0.00    +0.000 A 
ATOM     14  C   UNL     1     -69.784 -56.599 -34.776  0.00  0.00    +0.000 A 
ATOM     15  C   UNL     1     -68.094 -57.822 -32.956  0.00  0.00    +0.000 A 
ATOM     16  C   UNL     1     -70.139 -56.636 -33.427  0.00  0.00    +0.000 A 
ATOM     17  C   UNL     1     -69.284 -57.251 -32.522  0.00  0.00    +0.000 A 
BRANCH  15  18
ATOM     18  O   UNL     1     -67.258 -58.425 -32.060  0.00  0.00    +0.000 OA
ATOM     19  H   UNL     1     -66.358 -58.293 -32.422  0.00  0.00    +0.000 HD
ENDBRANCH  15  18
BRANCH  17  20
ATOM     20  O   UNL     1     -69.587 -57.313 -31.189  0.00  0.00    +0.000 OA
ATOM     21  H   UNL     1     -70.019 -56.474 -30.944  0.00  0.00    +0.000 HD
ENDBRANCH  17  20
ENDBRANCH   5  12
BRANCH   8  22
ATOM     22  O   UNL     1     -67.069 -57.907 -41.621  0.00  0.00    +0.000 OA
ATOM     23  H   UNL     1     -66.330 -57.760 -42.251  0.00  0.00    +0.000 HD
ENDBRANCH   8  22
BRANCH  10  24
ATOM     24  O   UNL     1     -66.649 -53.227 -40.917  0.00  0.00    +0.000 OA
ATOM     25  H   UNL     1     -66.729 -52.589 -40.186  0.00  0.00    +0.000 HD
ENDBRANCH  10  24
TORSDOF 5
ENDMDL
MODEL 2
REMARK VINA RESULT:      -5.7      1.714      6.606
REMARK  Name = 5280445_Luteolin.pdbqt.pdb
REMARK  5 active torsions:
REMARK  status: ('A' for Active; 'I' for Inactive)
REMARK    1  A    between atoms: C_5  and  C_12
REMARK    2  A    between atoms: C_8  and  O_22
REMARK    3  A    between atoms: C_10  and  O_24
REMARK    4  A    between atoms: C_15  and  O_18
REMARK    5  A    between atoms: C_17  and  O_20
REMARK                            x       y       z     vdW  Elec       q    Type
REMARK                         _______ _______ _______ _____ _____    ______ ____
ROOT
ATOM      1  O   UNL     1     -68.218 -56.611 -36.292  0.00  0.00    +0.000 OA
ATOM      2  O   UNL     1     -67.341 -60.469 -37.414  0.00  0.00    +0.000 OA
ATOM      3  C   UNL     1     -67.696 -58.943 -35.595  0.00  0.00    +0.000 A 
ATOM      4  C   UNL     1     -68.002 -57.588 -35.315  0.00  0.00    +0.000 A 
ATOM      5  C   UNL     1     -68.129 -56.972 -37.641  0.00  0.00    +0.000 A 
ATOM      6  C   UNL     1     -67.596 -59.349 -37.010  0.00  0.00    +0.000 A 
ATOM      7  C   UNL     1     -67.847 -58.218 -37.827  0.00  0.00    +0.000 A 
ATOM      8  C   UNL     1     -67.496 -59.855 -34.560  0.00  0.00    +0.000 A 
ATOM      9  C   UNL     1     -68.105 -57.166 -33.994  0.00  0.00    +0.000 A 
ATOM     10  C   UNL     1     -67.903 -58.090 -32.970  0.00  0.00    +0.000 A 
ATOM     11  C   UNL     1     -67.600 -59.425 -33.241  0.00  0.00    +0.000 A 
ENDROOT
BRANCH   5  12
ATOM     12  C   UNL     1     -68.355 -55.951 -38.657  0.00  0.00    +0.000 A 
ATOM     13  C   UNL     1     -67.290 -55.182 -39.135  0.00  0.00    +0.000 A 
ATOM     14  C   UNL     1     -69.639 -55.724 -39.171  0.00  0.00    +0.000 A 
ATOM     15  C   UNL     1     -67.516 -54.211 -40.103  0.00  0.00    +0.000 A 
ATOM     16  C   UNL     1     -69.866 -54.749 -40.142  0.00  0.00    +0.000 A 
ATOM     17  C   UNL     1     -68.795 -53.996 -40.604  0.00  0.00    +0.000 A 
BRANCH  15  18
ATOM     18  O   UNL     1     -66.467 -53.467 -40.561  0.00  0.00    +0.000 OA
ATOM     19  H   UNL     1     -66.202 -52.907 -39.805  0.00  0.00    +0.000 HD
ENDBRANCH  15  18
BRANCH  17  20
ATOM     20  O   UNL     1     -68.965 -53.028 -41.556  0.00  0.00    +0.000 OA
ATOM     21  H   UNL     1     -68.186 -52.444 -41.526  0.00  0.00    +0.000 HD
ENDBRANCH  17  20
ENDBRANCH   5  12
BRANCH   8  22
ATOM     22  O   UNL     1     -67.197 -61.173 -34.767  0.00  0.00    +0.000 OA
ATOM     23  H   UNL     1     -66.569 -61.253 -35.519  0.00  0.00    +0.000 HD
ENDBRANCH   8  22
BRANCH  10  24
ATOM     24  O   UNL     1     -68.008 -57.654 -31.680  0.00  0.00    +0.000 OA
ATOM     25  H   UNL     1     -67.395 -56.907 -31.560  0.00  0.00    +0.000 HD
ENDBRANCH  10  24
TORSDOF 5
ENDMDL
MODEL 3
REMARK VINA RESULT:      -5.6     35.357     39.451
REMARK  Name = 5280445_Luteolin.pdbqt.pdb
REMARK  5 active torsions:
REMARK  status: ('A' for Active; 'I' for Inactive)
REMARK    1  A    between atoms: C_5  and  C_12
REMARK    2  A    between atoms: C_8  and  O_22
REMARK    3  A    between atoms: C_10  and  O_24
REMARK    4  A    between atoms: C_15  and  O_18
REMARK    5  A    between atoms: C_17  and  O_20
REMARK                            x       y       z     vdW  Elec       q    Type
REMARK                         _______ _______ _______ _____ _____    ______ ____
ROOT
ATOM      1  O   UNL     1     -64.040 -60.605 -76.316  0.00  0.00    +0.000 OA
ATOM      2  O   UNL     1     -66.023 -63.659 -78.228  0.00  0.00    +0.000 OA
ATOM      3  C   UNL     1     -64.302 -61.990 -78.367  0.00  0.00    +0.000 A 
ATOM      4  C   UNL     1     -63.684 -60.956 -77.621  0.00  0.00    +0.000 A 
ATOM      5  C   UNL     1     -65.074 -61.307 -75.684  0.00  0.00    +0.000 A 
ATOM      6  C   UNL     1     -65.394 -62.746 -77.725  0.00  0.00    +0.000 A 
ATOM      7  C   UNL     1     -65.593 -62.235 -76.417  0.00  0.00    +0.000 A 
ATOM      8  C   UNL     1     -63.884 -62.277 -79.666  0.00  0.00    +0.000 A 
ATOM      9  C   UNL     1     -62.651 -60.221 -78.192  0.00  0.00    +0.000 A 
ATOM     10  C   UNL     1     -62.245 -60.520 -79.492  0.00  0.00    +0.000 A 
ATOM     11  C   UNL     1     -62.850 -61.537 -80.231  0.00  0.00    +0.000 A 
ENDROOT
BRANCH   5  12
ATOM     12  C   UNL     1     -65.442 -60.939 -74.323  0.00  0.00    +0.000 A 
ATOM     13  C   UNL     1     -64.604 -61.261 -73.252  0.00  0.00    +0.000 A 
ATOM     14  C   UNL     1     -66.639 -60.257 -74.066  0.00  0.00    +0.000 A 
ATOM     15  C   UNL     1     -64.966 -60.906 -71.958  0.00  0.00    +0.000 A 
ATOM     16  C   UNL     1     -67.003 -59.901 -72.767  0.00  0.00    +0.000 A 
ATOM     17  C   UNL     1     -66.156 -60.230 -71.717  0.00  0.00    +0.000 A 
BRANCH  15  18
ATOM     18  O   UNL     1     -64.137 -61.226 -70.921  0.00  0.00    +0.000 OA
ATOM     19  H   UNL     1     -63.298 -61.502 -71.340  0.00  0.00    +0.000 HD
ENDBRANCH  15  18
BRANCH  17  20
ATOM     20  O   UNL     1     -66.466 -59.902 -70.425  0.00  0.00    +0.000 OA
ATOM     21  H   UNL     1     -65.813 -60.334 -69.845  0.00  0.00    +0.000 HD
ENDBRANCH  17  20
ENDBRANCH   5  12
BRANCH   8  22
ATOM     22  O   UNL     1     -64.442 -63.262 -80.434  0.00  0.00    +0.000 OA
ATOM     23  H   UNL     1     -64.538 -62.943 -81.358  0.00  0.00    +0.000 HD
ENDBRANCH   8  22
BRANCH  10  24
ATOM     24  O   UNL     1     -61.229 -59.785 -80.034  0.00  0.00    +0.000 OA
ATOM     25  H   UNL     1     -60.977 -59.095 -79.395  0.00  0.00    +0.000 HD
ENDBRANCH  10  24
TORSDOF 5
ENDMDL
MODEL 4
REMARK VINA RESULT:      -5.6     14.869     17.622
REMARK  Name = 5280445_Luteolin.pdbqt.pdb
REMARK  5 active torsions:
REMARK  status: ('A' for Active; 'I' for Inactive)
REMARK    1  A    between atoms: C_5  and  C_12
REMARK    2  A    between atoms: C_8  and  O_22
REMARK    3  A    between atoms: C_10  and  O_24
REMARK    4  A    between atoms: C_15  and  O_18
REMARK    5  A    between atoms: C_17  and  O_20
REMARK                            x       y       z     vdW  Elec       q    Type
REMARK                         _______ _______ _______ _____ _____    ______ ____
ROOT
ATOM      1  O   UNL     1     -62.438 -54.777 -21.090  0.00  0.00    +0.000 OA
ATOM      2  O   UNL     1     -62.271 -50.829 -22.233  0.00  0.00    +0.000 OA
ATOM      3  C   UNL     1     -61.774 -53.106 -22.811  0.00  0.00    +0.000 A 
ATOM      4  C   UNL     1     -61.879 -54.433 -22.324  0.00  0.00    +0.000 A 
ATOM      5  C   UNL     1     -62.933 -53.760 -20.264  0.00  0.00    +0.000 A 
ATOM      6  C   UNL     1     -62.288 -52.016 -21.960  0.00  0.00    +0.000 A 
ATOM      7  C   UNL     1     -62.807 -52.578 -20.766  0.00  0.00    +0.000 A 
ATOM      8  C   UNL     1     -61.202 -52.849 -24.056  0.00  0.00    +0.000 A 
ATOM      9  C   UNL     1     -61.406 -55.487 -23.097  0.00  0.00    +0.000 A 
ATOM     10  C   UNL     1     -60.837 -55.215 -24.340  0.00  0.00    +0.000 A 
ATOM     11  C   UNL     1     -60.731 -53.910 -24.824  0.00  0.00    +0.000 A 
ENDROOT
BRANCH   5  12
ATOM     12  C   UNL     1     -63.515 -54.122 -18.978  0.00  0.00    +0.000 A 
ATOM     13  C   UNL     1     -62.757 -54.810 -18.027  0.00  0.00    +0.000 A 
ATOM     14  C   UNL     1     -64.842 -53.788 -18.674  0.00  0.00    +0.000 A 
ATOM     15  C   UNL     1     -63.322 -55.151 -16.804  0.00  0.00    +0.000 A 
ATOM     16  C   UNL     1     -65.410 -54.130 -17.447  0.00  0.00    +0.000 A 
ATOM     17  C   UNL     1     -64.640 -54.813 -16.515  0.00  0.00    +0.000 A 
BRANCH  15  18
ATOM     18  O   UNL     1     -62.570 -55.822 -15.883  0.00  0.00    +0.000 OA
ATOM     19  H   UNL     1     -63.217 -56.227 -15.272  0.00  0.00    +0.000 HD
ENDBRANCH  15  18
BRANCH  17  20
ATOM     20  O   UNL     1     -65.150 -55.171 -15.297  0.00  0.00    +0.000 OA
ATOM     21  H   UNL     1     -64.402 -55.429 -14.728  0.00  0.00    +0.000 HD
ENDBRANCH  17  20
ENDBRANCH   5  12
BRANCH   8  22
ATOM     22  O   UNL     1     -61.072 -51.592 -24.579  0.00  0.00    +0.000 OA
ATOM     23  H   UNL     1     -60.509 -51.047 -23.988  0.00  0.00    +0.000 HD
ENDBRANCH   8  22
BRANCH  10  24
ATOM     24  O   UNL     1     -60.378 -56.265 -25.082  0.00  0.00    +0.000 OA
ATOM     25  H   UNL     1     -60.444 -56.025 -26.024  0.00  0.00    +0.000 HD
ENDBRANCH  10  24
TORSDOF 5
ENDMDL
MODEL 5
REMARK VINA RESULT:      -5.6      1.415      7.182
REMARK  Name = 5280445_Luteolin.pdbqt.pdb
REMARK  5 active torsions:
REMARK  status: ('A' for Active; 'I' for Inactive)
REMARK    1  A    between atoms: C_5  and  C_12
REMARK    2  A    between atoms: C_8  and  O_22
REMARK    3  A    between atoms: C_10  and  O_24
REMARK    4  A    between atoms: C_15  and  O_18
REMARK    5  A    between atoms: C_17  and  O_20
REMARK                            x       y       z     vdW  Elec       q    Type
REMARK                         _______ _______ _______ _____ _____    ______ ____
ROOT
ATOM      1  O   UNL     1     -67.735 -56.987 -36.345  0.00  0.00    +0.000 OA
ATOM      2  O   UNL     1     -71.750 -56.302 -35.775  0.00  0.00    +0.000 OA
ATOM      3  C   UNL     1     -69.682 -57.029 -34.796  0.00  0.00    +0.000 A 
ATOM      4  C   UNL     1     -68.312 -57.233 -35.096  0.00  0.00    +0.000 A 
ATOM      5  C   UNL     1     -68.544 -56.510 -37.383  0.00  0.00    +0.000 A 
ATOM      6  C   UNL     1     -70.557 -56.527 -35.872  0.00  0.00    +0.000 A 
ATOM      7  C   UNL     1     -69.779 -56.347 -37.044  0.00  0.00    +0.000 A 
ATOM      8  C   UNL     1     -70.178 -57.299 -33.521  0.00  0.00    +0.000 A 
ATOM      9  C   UNL     1     -67.455 -57.705 -34.108  0.00  0.00    +0.000 A 
ATOM     10  C   UNL     1     -67.966 -57.969 -32.838  0.00  0.00    +0.000 A 
ATOM     11  C   UNL     1     -69.314 -57.772 -32.538  0.00  0.00    +0.000 A 
ENDROOT
BRANCH   5  12
ATOM     12  C   UNL     1     -67.940 -56.255 -38.684  0.00  0.00    +0.000 A 
ATOM     13  C   UNL     1     -67.517 -54.967 -39.027  0.00  0.00    +0.000 A 
ATOM     14  C   UNL     1     -67.771 -57.292 -39.611  0.00  0.00    +0.000 A 
ATOM     15  C   UNL     1     -66.942 -54.735 -40.270  0.00  0.00    +0.000 A 
ATOM     16  C   UNL     1     -67.193 -57.059 -40.859  0.00  0.00    +0.000 A 
ATOM     17  C   UNL     1     -66.780 -55.773 -41.181  0.00  0.00    +0.000 A 
BRANCH  15  18
ATOM     18  O   UNL     1     -66.533 -53.473 -40.592  0.00  0.00    +0.000 OA
ATOM     19  H   UNL     1     -65.609 -53.415 -40.275  0.00  0.00    +0.000 HD
ENDBRANCH  15  18
BRANCH  17  20
ATOM     20  O   UNL     1     -66.208 -55.492 -42.391  0.00  0.00    +0.000 OA
ATOM     21  H   UNL     1     -65.397 -54.980 -42.223  0.00  0.00    +0.000 HD
ENDBRANCH  17  20
ENDBRANCH   5  12
BRANCH   8  22
ATOM     22  O   UNL     1     -71.488 -57.124 -33.172  0.00  0.00    +0.000 OA
ATOM     23  H   UNL     1     -71.644 -56.182 -32.942  0.00  0.00    +0.000 HD
ENDBRANCH   8  22
BRANCH  10  24
ATOM     24  O   UNL     1     -67.107 -58.433 -31.883  0.00  0.00    +0.000 OA
ATOM     25  H   UNL     1     -67.625 -58.651 -31.088  0.00  0.00    +0.000 HD
ENDBRANCH  10  24
TORSDOF 5
ENDMDL
MODEL 6
REMARK VINA RESULT:      -5.3      2.912      5.555
REMARK  Name = 5280445_Luteolin.pdbqt.pdb
REMARK  5 active torsions:
REMARK  status: ('A' for Active; 'I' for Inactive)
REMARK    1  A    between atoms: C_5  and  C_12
REMARK    2  A    between atoms: C_8  and  O_22
REMARK    3  A    between atoms: C_10  and  O_24
REMARK    4  A    between atoms: C_15  and  O_18
REMARK    5  A    between atoms: C_17  and  O_20
REMARK                            x       y       z     vdW  Elec       q    Type
REMARK                         _______ _______ _______ _____ _____    ______ ____
ROOT
ATOM      1  O   UNL     1     -69.963 -56.210 -33.739  0.00  0.00    +0.000 OA
ATOM      2  O   UNL     1     -67.150 -58.846 -32.304  0.00  0.00    +0.000 OA
ATOM      3  C   UNL     1     -68.230 -57.924 -34.240  0.00  0.00    +0.000 A 
ATOM      4  C   UNL     1     -69.221 -56.990 -34.630  0.00  0.00    +0.000 A 
ATOM      5  C   UNL     1     -69.730 -56.347 -32.365  0.00  0.00    +0.000 A 
ATOM      6  C   UNL     1     -67.964 -58.088 -32.798  0.00  0.00    +0.000 A 
ATOM      7  C   UNL     1     -68.817 -57.213 -32.078  0.00  0.00    +0.000 A 
ATOM      8  C   UNL     1     -67.533 -58.662 -35.196  0.00  0.00    +0.000 A 
ATOM      9  C   UNL     1     -69.499 -56.807 -35.981  0.00  0.00    +0.000 A 
ATOM     10  C   UNL     1     -68.794 -57.552 -36.925  0.00  0.00    +0.000 A 
ATOM     11  C   UNL     1     -67.817 -58.475 -36.546  0.00  0.00    +0.000 A 
ENDROOT
BRANCH   5  12
ATOM     12  C   UNL     1     -70.506 -55.533 -31.437  0.00  0.00    +0.000 A 
ATOM     13  C   UNL     1     -71.658 -54.871 -31.871  0.00  0.00    +0.000 A 
ATOM     14  C   UNL     1     -70.112 -55.402 -30.099  0.00  0.00    +0.000 A 
ATOM     15  C   UNL     1     -72.390 -54.097 -30.979  0.00  0.00    +0.000 A 
ATOM     16  C   UNL     1     -70.847 -54.625 -29.203  0.00  0.00    +0.000 A 
ATOM     17  C   UNL     1     -71.988 -53.975 -29.654  0.00  0.00    +0.000 A 
BRANCH  15  18
ATOM     18  O   UNL     1     -73.513 -53.456 -31.416  0.00  0.00    +0.000 OA
ATOM     19  H   UNL     1     -74.216 -53.715 -30.786  0.00  0.00    +0.000 HD
ENDBRANCH  15  18
BRANCH  17  20
ATOM     20  O   UNL     1     -72.743 -53.201 -28.815  0.00  0.00    +0.000 OA
ATOM     21  H   UNL     1     -73.340 -52.663 -29.366  0.00  0.00    +0.000 HD
ENDBRANCH  17  20
ENDBRANCH   5  12
BRANCH   8  22
ATOM     22  O   UNL     1     -66.568 -59.578 -34.882  0.00  0.00    +0.000 OA
ATOM     23  H   UNL     1     -66.843 -60.086 -34.088  0.00  0.00    +0.000 HD
ENDBRANCH   8  22
BRANCH  10  24
ATOM     24  O   UNL     1     -69.083 -57.358 -38.245  0.00  0.00    +0.000 OA
ATOM     25  H   UNL     1     -69.536 -58.153 -38.578  0.00  0.00    +0.000 HD
ENDBRANCH  10  24
TORSDOF 5
ENDMDL
MODEL 7
REMARK VINA RESULT:      -5.2     17.931     21.980
REMARK  Name = 5280445_Luteolin.pdbqt.pdb
REMARK  5 active torsions:
REMARK  status: ('A' for Active; 'I' for Inactive)
REMARK    1  A    between atoms: C_5  and  C_12
REMARK    2  A    between atoms: C_8  and  O_22
REMARK    3  A    between atoms: C_10  and  O_24
REMARK    4  A    between atoms: C_15  and  O_18
REMARK    5  A    between atoms: C_17  and  O_20
REMARK                            x       y       z     vdW  Elec       q    Type
REMARK                         _______ _______ _______ _____ _____    ______ ____
ROOT
ATOM      1  O   UNL     1     -63.108 -46.485 -56.171  0.00  0.00    +0.000 OA
ATOM      2  O   UNL     1     -66.727 -46.288 -58.116  0.00  0.00    +0.000 OA
ATOM      3  C   UNL     1     -64.342 -46.459 -58.333  0.00  0.00    +0.000 A 
ATOM      4  C   UNL     1     -63.151 -46.520 -57.568  0.00  0.00    +0.000 A 
ATOM      5  C   UNL     1     -64.310 -46.381 -55.460  0.00  0.00    +0.000 A 
ATOM      6  C   UNL     1     -65.622 -46.350 -57.608  0.00  0.00    +0.000 A 
ATOM      7  C   UNL     1     -65.356 -46.330 -56.215  0.00  0.00    +0.000 A 
ATOM      8  C   UNL     1     -64.296 -46.502 -59.725  0.00  0.00    +0.000 A 
ATOM      9  C   UNL     1     -61.924 -46.624 -58.215  0.00  0.00    +0.000 A 
ATOM     10  C   UNL     1     -61.894 -46.665 -59.608  0.00  0.00    +0.000 A 
ATOM     11  C   UNL     1     -63.065 -46.605 -60.366  0.00  0.00    +0.000 A 
ENDROOT
BRANCH   5  12
ATOM     12  C   UNL     1     -64.262 -46.344 -54.004  0.00  0.00    +0.000 A 
ATOM     13  C   UNL     1     -64.871 -47.352 -53.251  0.00  0.00    +0.000 A 
ATOM     14  C   UNL     1     -63.606 -45.302 -53.335  0.00  0.00    +0.000 A 
ATOM     15  C   UNL     1     -64.821 -47.308 -51.864  0.00  0.00    +0.000 A 
ATOM     16  C   UNL     1     -63.555 -45.257 -51.942  0.00  0.00    +0.000 A 
ATOM     17  C   UNL     1     -64.167 -46.268 -51.213  0.00  0.00    +0.000 A 
BRANCH  15  18
ATOM     18  O   UNL     1     -65.420 -48.299 -51.140  0.00  0.00    +0.000 OA
ATOM     19  H   UNL     1     -65.060 -49.133 -51.504  0.00  0.00    +0.000 HD
ENDBRANCH  15  18
BRANCH  17  20
ATOM     20  O   UNL     1     -64.145 -46.270 -49.845  0.00  0.00    +0.000 OA
ATOM     21  H   UNL     1     -64.689 -47.019 -49.541  0.00  0.00    +0.000 HD
ENDBRANCH  17  20
ENDBRANCH   5  12
BRANCH   8  22
ATOM     22  O   UNL     1     -65.410 -46.446 -60.516  0.00  0.00    +0.000 OA
ATOM     23  H   UNL     1     -65.595 -47.337 -60.887  0.00  0.00    +0.000 HD
ENDBRANCH   8  22
BRANCH  10  24
ATOM     24  O   UNL     1     -60.679 -46.766 -60.223  0.00  0.00    +0.000 OA
ATOM     25  H   UNL     1     -60.800 -47.252 -61.059  0.00  0.00    +0.000 HD
ENDBRANCH  10  24
TORSDOF 5
ENDMDL
MODEL 8
REMARK VINA RESULT:      -5.2     10.669     14.548
REMARK  Name = 5280445_Luteolin.pdbqt.pdb
REMARK  5 active torsions:
REMARK  status: ('A' for Active; 'I' for Inactive)
REMARK    1  A    between atoms: C_5  and  C_12
REMARK    2  A    between atoms: C_8  and  O_22
REMARK    3  A    between atoms: C_10  and  O_24
REMARK    4  A    between atoms: C_15  and  O_18
REMARK    5  A    between atoms: C_17  and  O_20
REMARK                            x       y       z     vdW  Elec       q    Type
REMARK                         _______ _______ _______ _____ _____    ______ ____
ROOT
ATOM      1  O   UNL     1     -73.238 -56.703 -24.561  0.00  0.00    +0.000 OA
ATOM      2  O   UNL     1     -71.987 -60.459 -23.443  0.00  0.00    +0.000 OA
ATOM      3  C   UNL     1     -72.394 -58.939 -25.257  0.00  0.00    +0.000 A 
ATOM      4  C   UNL     1     -72.841 -57.623 -25.535  0.00  0.00    +0.000 A 
ATOM      5  C   UNL     1     -73.201 -57.086 -23.214  0.00  0.00    +0.000 A 
ATOM      6  C   UNL     1     -72.345 -59.367 -23.846  0.00  0.00    +0.000 A 
ATOM      7  C   UNL     1     -72.785 -58.294 -23.030  0.00  0.00    +0.000 A 
ATOM      8  C   UNL     1     -72.014 -59.795 -26.290  0.00  0.00    +0.000 A 
ATOM      9  C   UNL     1     -72.899 -57.183 -26.853  0.00  0.00    +0.000 A 
ATOM     10  C   UNL     1     -72.517 -58.050 -27.875  0.00  0.00    +0.000 A 
ATOM     11  C   UNL     1     -72.076 -59.347 -27.606  0.00  0.00    +0.000 A 
ENDROOT
BRANCH   5  12
ATOM     12  C   UNL     1     -73.616 -56.124 -22.201  0.00  0.00    +0.000 A 
ATOM     13  C   UNL     1     -73.100 -56.197 -20.904  0.00  0.00    +0.000 A 
ATOM     14  C   UNL     1     -74.535 -55.112 -22.508  0.00  0.00    +0.000 A 
ATOM     15  C   UNL     1     -73.502 -55.276 -19.945  0.00  0.00    +0.000 A 
ATOM     16  C   UNL     1     -74.939 -54.187 -21.545  0.00  0.00    +0.000 A 
ATOM     17  C   UNL     1     -74.415 -54.277 -20.263  0.00  0.00    +0.000 A 
BRANCH  15  18
ATOM     18  O   UNL     1     -72.990 -55.359 -18.682  0.00  0.00    +0.000 OA
ATOM     19  H   UNL     1     -72.354 -54.619 -18.615  0.00  0.00    +0.000 HD
ENDBRANCH  15  18
BRANCH  17  20
ATOM     20  O   UNL     1     -74.779 -53.394 -19.283  0.00  0.00    +0.000 OA
ATOM     21  H   UNL     1     -75.750 -53.418 -19.209  0.00  0.00    +0.000 HD
ENDBRANCH  17  20
ENDBRANCH   5  12
BRANCH   8  22
ATOM     22  O   UNL     1     -71.576 -61.073 -26.084  0.00  0.00    +0.000 OA
ATOM     23  H   UNL     1     -72.211 -61.707 -26.483  0.00  0.00    +0.000 HD
ENDBRANCH   8  22
BRANCH  10  24
ATOM     24  O   UNL     1     -72.583 -57.598 -29.162  0.00  0.00    +0.000 OA
ATOM     25  H   UNL     1     -71.692 -57.312 -29.431  0.00  0.00    +0.000 HD
ENDBRANCH  10  24
TORSDOF 5
ENDMDL
MODEL 9
REMARK VINA RESULT:      -5.2     33.436     35.459
REMARK  Name = 5280445_Luteolin.pdbqt.pdb
REMARK  5 active torsions:
REMARK  status: ('A' for Active; 'I' for Inactive)
REMARK    1  A    between atoms: C_5  and  C_12
REMARK    2  A    between atoms: C_8  and  O_22
REMARK    3  A    between atoms: C_10  and  O_24
REMARK    4  A    between atoms: C_15  and  O_18
REMARK    5  A    between atoms: C_17  and  O_20
REMARK                            x       y       z     vdW  Elec       q    Type
REMARK                         _______ _______ _______ _____ _____    ______ ____
ROOT
ATOM      1  O   UNL     1     -62.250 -63.265 -70.814  0.00  0.00    +0.000 OA
ATOM      2  O   UNL     1     -63.334 -66.868 -72.475  0.00  0.00    +0.000 OA
ATOM      3  C   UNL     1     -61.640 -65.626 -71.313  0.00  0.00    +0.000 A 
ATOM      4  C   UNL     1     -61.364 -64.345 -70.772  0.00  0.00    +0.000 A 
ATOM      5  C   UNL     1     -63.497 -63.436 -71.427  0.00  0.00    +0.000 A 
ATOM      6  C   UNL     1     -62.947 -65.833 -71.965  0.00  0.00    +0.000 A 
ATOM      7  C   UNL     1     -63.684 -64.623 -71.898  0.00  0.00    +0.000 A 
ATOM      8  C   UNL     1     -60.699 -66.651 -71.227  0.00  0.00    +0.000 A 
ATOM      9  C   UNL     1     -60.143 -64.112 -70.150  0.00  0.00    +0.000 A 
ATOM     10  C   UNL     1     -59.212 -65.147 -70.072  0.00  0.00    +0.000 A 
ATOM     11  C   UNL     1     -59.479 -66.409 -70.604  0.00  0.00    +0.000 A 
ENDROOT
BRANCH   5  12
ATOM     12  C   UNL     1     -64.418 -62.308 -71.469  0.00  0.00    +0.000 A 
ATOM     13  C   UNL     1     -64.898 -61.742 -70.284  0.00  0.00    +0.000 A 
ATOM     14  C   UNL     1     -64.837 -61.771 -72.694  0.00  0.00    +0.000 A 
ATOM     15  C   UNL     1     -65.777 -60.667 -70.336  0.00  0.00    +0.000 A 
ATOM     16  C   UNL     1     -65.720 -60.691 -72.746  0.00  0.00    +0.000 A 
ATOM     17  C   UNL     1     -66.185 -60.144 -71.558  0.00  0.00    +0.000 A 
BRANCH  15  18
ATOM     18  O   UNL     1     -66.238 -60.124 -69.171  0.00  0.00    +0.000 OA
ATOM     19  H   UNL     1     -66.461 -59.197 -69.392  0.00  0.00    +0.000 HD
ENDBRANCH  15  18
BRANCH  17  20
ATOM     20  O   UNL     1     -67.051 -59.085 -71.554  0.00  0.00    +0.000 OA
ATOM     21  H   UNL     1     -66.664 -58.385 -72.111  0.00  0.00    +0.000 HD
ENDBRANCH  17  20
ENDBRANCH   5  12
BRANCH   8  22
ATOM     22  O   UNL     1     -60.907 -67.905 -71.730  0.00  0.00    +0.000 OA
ATOM     23  H   UNL     1     -61.805 -68.215 -71.481  0.00  0.00    +0.000 HD
ENDBRANCH   8  22
BRANCH  10  24
ATOM     24  O   UNL     1     -58.019 -64.895 -69.458  0.00  0.00    +0.000 OA
ATOM     25  H   UNL     1     -57.465 -65.693 -69.529  0.00  0.00    +0.000 HD
ENDBRANCH  10  24
TORSDOF 5
ENDMDL
