MODEL 1
REMARK VINA RESULT:      -6.4      0.000      0.000
REMARK  Name = 5281239_Fucoxanthin.pdbqt.pdb
REMARK  19 active torsions:
REMARK  status: ('A' for Active; 'I' for Inactive)
REMARK    1  A    between atoms: C_1  and  C_5
REMARK    2  A    between atoms: C_2  and  C_26
REMARK    3  A    between atoms: C_3  and  C_5
REMARK    4  A    between atoms: C_3  and  C_7
REMARK    5  A    between atoms: C_6  and  C_10
REMARK    6  A    between atoms: C_8  and  C_10
REMARK    7  A    between atoms: C_8  and  C_12
REMARK    8  A    between atoms: C_12  and  C_13
REMARK    9  A    between atoms: C_13  and  C_15
REMARK   10  A    between atoms: C_20  and  O_24
REMARK   11  A    between atoms: C_26  and  C_27
REMARK   12  A    between atoms: C_27  and  C_30
REMARK   13  A    between atoms: C_29  and  C_33
REMARK   14  A    between atoms: C_31  and  C_33
REMARK   15  A    between atoms: C_31  and  C_44
REMARK   16  A    between atoms: C_35  and  O_45
REMARK   17  A    between atoms: C_37  and  O_47
REMARK   18  A    between atoms: C_39  and  C_43
REMARK   19  A    between atoms: O_47  and  C_49
REMARK                            x       y       z     vdW  Elec       q    Type
REMARK                         _______ _______ _______ _____ _____    ______ ____
ROOT
ATOM      1  C   UNL     1     -59.509 -60.214 -64.363  0.00  0.00    +0.000 C 
ATOM      2  C   UNL     1     -60.600 -60.702 -64.250  0.00  0.00    +0.000 C 
ENDROOT
BRANCH   2   3
ATOM      3  C   UNL     1     -61.990 -61.332 -64.107  0.00  0.00    +0.000 C 
BRANCH   3   4
ATOM      4  C   UNL     1     -63.164 -61.868 -63.989  0.00  0.00    +0.000 C 
ATOM      5  C   UNL     1     -63.472 -62.742 -62.811  0.00  0.00    +0.000 C 
BRANCH   4   7
ATOM      6  C   UNL     1     -65.022 -61.346 -65.756  0.00  0.00    +0.000 C 
ATOM      7  C   UNL     1     -64.168 -61.587 -64.946  0.00  0.00    +0.000 C 
BRANCH   6   8
ATOM      8  C   UNL     1     -66.111 -61.034 -66.788  0.00  0.00    +0.000 C 
BRANCH   8   9
ATOM      9  C   UNL     1     -67.037 -60.763 -67.655  0.00  0.00    +0.000 C 
ATOM     10  C   UNL     1     -68.435 -60.476 -67.200  0.00  0.00    +0.000 C 
BRANCH   9  12
ATOM     11  C   UNL     1     -66.506 -60.933 -70.215  0.00  0.00    +0.000 C 
ATOM     12  C   UNL     1     -66.752 -60.853 -69.040  0.00  0.00    +0.000 C 
BRANCH  11  18
ATOM     13  C   UNL     1     -67.243 -60.607 -72.588  0.00  0.00    +0.000 C 
ATOM     14  C   UNL     1     -64.908 -61.584 -71.988  0.00  0.00    +0.000 C 
ATOM     15  C   UNL     1     -66.599 -60.511 -73.905  0.00  0.00    +0.000 C 
ATOM     16  C   UNL     1     -65.352 -60.771 -74.505  0.00  0.00    +0.000 C 
ATOM     17  C   UNL     1     -64.655 -61.287 -73.393  0.00  0.00    +0.000 C 
ATOM     18  C   UNL     1     -66.232 -61.017 -71.502  0.00  0.00    +0.000 C 
ATOM     19  C   UNL     1     -68.380 -61.662 -72.628  0.00  0.00    +0.000 C 
ATOM     20  C   UNL     1     -67.831 -59.207 -72.234  0.00  0.00    +0.000 C 
ATOM     21  C   UNL     1     -64.823 -63.088 -71.710  0.00  0.00    +0.000 C 
BRANCH  14  22
ATOM     22  O   UNL     1     -63.858 -61.016 -71.236  0.00  0.00    +0.000 OA
ATOM     23  H   UNL     1     -64.147 -61.209 -70.325  0.00  0.00    +0.000 HD
ENDBRANCH  14  22
BRANCH  16  24
ATOM     24  O   UNL     1     -65.313 -61.429 -75.727  0.00  0.00    +0.000 OA
BRANCH  24  26
ATOM     25  O   UNL     1     -63.615 -60.405 -76.982  0.00  0.00    +0.000 OA
ATOM     26  C   UNL     1     -64.773 -60.620 -76.672  0.00  0.00    +0.000 C 
ATOM     27  C   UNL     1     -65.774 -59.853 -77.461  0.00  0.00    +0.000 C 
ENDBRANCH  24  26
ENDBRANCH  16  24
ENDBRANCH  11  18
ENDBRANCH   9  12
ENDBRANCH   8   9
ENDBRANCH   6   8
ENDBRANCH   4   7
ENDBRANCH   3   4
ENDBRANCH   2   3
BRANCH   1  28
ATOM     28  C   UNL     1     -58.113 -59.599 -64.512  0.00  0.00    +0.000 C 
BRANCH  28  29
ATOM     29  C   UNL     1     -56.936 -59.071 -64.631  0.00  0.00    +0.000 C 
ATOM     30  C   UNL     1     -56.253 -58.485 -63.433  0.00  0.00    +0.000 C 
BRANCH  29  32
ATOM     31  C   UNL     1     -55.776 -58.969 -66.974  0.00  0.00    +0.000 C 
ATOM     32  C   UNL     1     -56.315 -59.015 -65.902  0.00  0.00    +0.000 C 
BRANCH  31  33
ATOM     33  C   UNL     1     -55.073 -58.914 -68.335  0.00  0.00    +0.000 C 
BRANCH  33  34
ATOM     34  C   UNL     1     -54.469 -58.866 -69.486  0.00  0.00    +0.000 C 
ATOM     35  C   UNL     1     -55.100 -57.994 -70.552  0.00  0.00    +0.000 C 
BRANCH  34  37
ATOM     36  O   UNL     1     -52.133 -59.169 -69.886  0.00  0.00    +0.000 OA
ATOM     37  C   UNL     1     -53.238 -59.679 -69.728  0.00  0.00    +0.000 C 
BRANCH  37  38
ATOM     38  C   UNL     1     -53.299 -61.120 -69.785  0.00  0.00    +0.000 C 
BRANCH  38  40
ATOM     39  O   UNL     1     -52.901 -63.134 -68.590  0.00  0.00    +0.000 OA
ATOM     40  C   UNL     1     -53.394 -62.566 -69.834  0.00  0.00    +0.000 C 
ATOM     41  C   UNL     1     -54.299 -63.297 -68.820  0.00  0.00    +0.000 C 
ATOM     42  C   UNL     1     -53.002 -63.323 -71.154  0.00  0.00    +0.000 C 
ATOM     43  C   UNL     1     -54.642 -64.652 -69.109  0.00  0.00    +0.000 C 
ATOM     44  C   UNL     1     -53.474 -64.702 -71.012  0.00  0.00    +0.000 C 
ATOM     45  C   UNL     1     -54.269 -65.500 -70.166  0.00  0.00    +0.000 C 
ATOM     46  C   UNL     1     -55.172 -62.560 -67.801  0.00  0.00    +0.000 C 
ATOM     47  C   UNL     1     -53.755 -62.590 -72.290  0.00  0.00    +0.000 C 
ATOM     48  C   UNL     1     -51.468 -63.191 -71.279  0.00  0.00    +0.000 C 
BRANCH  45  49
ATOM     49  O   UNL     1     -55.094 -66.462 -70.665  0.00  0.00    +0.000 OA
ATOM     50  H   UNL     1     -56.032 -66.279 -70.482  0.00  0.00    +0.000 HD
ENDBRANCH  45  49
ENDBRANCH  38  40
ENDBRANCH  37  38
ENDBRANCH  34  37
ENDBRANCH  33  34
ENDBRANCH  31  33
ENDBRANCH  29  32
ENDBRANCH  28  29
ENDBRANCH   1  28
TORSDOF 19
ENDMDL
MODEL 2
REMARK VINA RESULT:      -6.3     35.547     40.671
REMARK  Name = 5281239_Fucoxanthin.pdbqt.pdb
REMARK  19 active torsions:
REMARK  status: ('A' for Active; 'I' for Inactive)
REMARK    1  A    between atoms: C_1  and  C_5
REMARK    2  A    between atoms: C_2  and  C_26
REMARK    3  A    between atoms: C_3  and  C_5
REMARK    4  A    between atoms: C_3  and  C_7
REMARK    5  A    between atoms: C_6  and  C_10
REMARK    6  A    between atoms: C_8  and  C_10
REMARK    7  A    between atoms: C_8  and  C_12
REMARK    8  A    between atoms: C_12  and  C_13
REMARK    9  A    between atoms: C_13  and  C_15
REMARK   10  A    between atoms: C_20  and  O_24
REMARK   11  A    between atoms: C_26  and  C_27
REMARK   12  A    between atoms: C_27  and  C_30
REMARK   13  A    between atoms: C_29  and  C_33
REMARK   14  A    between atoms: C_31  and  C_33
REMARK   15  A    between atoms: C_31  and  C_44
REMARK   16  A    between atoms: C_35  and  O_45
REMARK   17  A    between atoms: C_37  and  O_47
REMARK   18  A    between atoms: C_39  and  C_43
REMARK   19  A    between atoms: O_47  and  C_49
REMARK                            x       y       z     vdW  Elec       q    Type
REMARK                         _______ _______ _______ _____ _____    ______ ____
ROOT
ATOM      1  C   UNL     1     -61.552 -52.514 -24.968  0.00  0.00    +0.000 C 
ATOM      2  C   UNL     1     -61.702 -51.528 -25.636  0.00  0.00    +0.000 C 
ENDROOT
BRANCH   2   3
ATOM      3  C   UNL     1     -61.891 -50.273 -26.495  0.00  0.00    +0.000 C 
BRANCH   3   4
ATOM      4  C   UNL     1     -62.046 -49.211 -27.222  0.00  0.00    +0.000 C 
ATOM      5  C   UNL     1     -60.961 -48.179 -27.279  0.00  0.00    +0.000 C 
BRANCH   4   7
ATOM      6  C   UNL     1     -64.214 -48.917 -28.657  0.00  0.00    +0.000 C 
ATOM      7  C   UNL     1     -63.218 -49.053 -27.999  0.00  0.00    +0.000 C 
BRANCH   6   8
ATOM      8  C   UNL     1     -65.484 -48.738 -29.496  0.00  0.00    +0.000 C 
BRANCH   8   9
ATOM      9  C   UNL     1     -66.553 -48.580 -30.212  0.00  0.00    +0.000 C 
ATOM     10  C   UNL     1     -67.898 -48.917 -29.644  0.00  0.00    +0.000 C 
BRANCH   9  12
ATOM     11  C   UNL     1     -66.349 -47.877 -32.728  0.00  0.00    +0.000 C 
ATOM     12  C   UNL     1     -66.440 -48.198 -31.572  0.00  0.00    +0.000 C 
BRANCH  11  18
ATOM     13  C   UNL     1     -65.604 -46.204 -34.438  0.00  0.00    +0.000 C 
ATOM     14  C   UNL     1     -66.819 -48.407 -35.099  0.00  0.00    +0.000 C 
ATOM     15  C   UNL     1     -65.346 -46.193 -35.884  0.00  0.00    +0.000 C 
ATOM     16  C   UNL     1     -65.591 -46.992 -37.018  0.00  0.00    +0.000 C 
ATOM     17  C   UNL     1     -66.323 -48.038 -36.419  0.00  0.00    +0.000 C 
ATOM     18  C   UNL     1     -66.248 -47.530 -33.996  0.00  0.00    +0.000 C 
ATOM     19  C   UNL     1     -66.561 -45.040 -34.062  0.00  0.00    +0.000 C 
ATOM     20  C   UNL     1     -64.241 -46.028 -33.702  0.00  0.00    +0.000 C 
ATOM     21  C   UNL     1     -68.350 -48.407 -35.058  0.00  0.00    +0.000 C 
BRANCH  14  22
ATOM     22  O   UNL     1     -66.450 -49.747 -34.862  0.00  0.00    +0.000 OA
ATOM     23  H   UNL     1     -65.575 -49.785 -35.291  0.00  0.00    +0.000 HD
ENDBRANCH  14  22
BRANCH  16  24
ATOM     24  O   UNL     1     -66.050 -46.390 -38.183  0.00  0.00    +0.000 OA
BRANCH  24  26
ATOM     25  O   UNL     1     -66.151 -47.540 -40.225  0.00  0.00    +0.000 OA
ATOM     26  C   UNL     1     -65.579 -47.056 -39.265  0.00  0.00    +0.000 C 
ATOM     27  C   UNL     1     -64.102 -47.237 -39.273  0.00  0.00    +0.000 C 
ENDBRANCH  24  26
ENDBRANCH  16  24
ENDBRANCH  11  18
ENDBRANCH   9  12
ENDBRANCH   8   9
ENDBRANCH   6   8
ENDBRANCH   4   7
ENDBRANCH   3   4
ENDBRANCH   2   3
BRANCH   1  28
ATOM     28  C   UNL     1     -61.357 -53.778 -24.123  0.00  0.00    +0.000 C 
BRANCH  28  29
ATOM     29  C   UNL     1     -61.199 -54.842 -23.401  0.00  0.00    +0.000 C 
ATOM     30  C   UNL     1     -61.668 -54.859 -21.978  0.00  0.00    +0.000 C 
BRANCH  29  32
ATOM     31  C   UNL     1     -60.006 -56.938 -24.416  0.00  0.00    +0.000 C 
ATOM     32  C   UNL     1     -60.547 -55.973 -23.948  0.00  0.00    +0.000 C 
BRANCH  31  33
ATOM     33  C   UNL     1     -59.330 -58.175 -25.019  0.00  0.00    +0.000 C 
BRANCH  33  34
ATOM     34  C   UNL     1     -58.751 -59.224 -25.524  0.00  0.00    +0.000 C 
ATOM     35  C   UNL     1     -57.409 -59.612 -24.936  0.00  0.00    +0.000 C 
BRANCH  34  37
ATOM     36  O   UNL     1     -59.761 -61.126 -26.559  0.00  0.00    +0.000 OA
ATOM     37  C   UNL     1     -59.381 -59.964 -26.660  0.00  0.00    +0.000 C 
BRANCH  37  38
ATOM     38  C   UNL     1     -59.575 -59.330 -27.942  0.00  0.00    +0.000 C 
BRANCH  38  40
ATOM     39  O   UNL     1     -60.580 -57.512 -29.096  0.00  0.00    +0.000 OA
ATOM     40  C   UNL     1     -59.735 -58.688 -29.233  0.00  0.00    +0.000 C 
ATOM     41  C   UNL     1     -59.219 -57.247 -29.428  0.00  0.00    +0.000 C 
ATOM     42  C   UNL     1     -59.964 -59.570 -30.513  0.00  0.00    +0.000 C 
ATOM     43  C   UNL     1     -59.072 -56.781 -30.769  0.00  0.00    +0.000 C 
ATOM     44  C   UNL     1     -59.791 -58.693 -31.673  0.00  0.00    +0.000 C 
ATOM     45  C   UNL     1     -59.356 -57.394 -32.002  0.00  0.00    +0.000 C 
ATOM     46  C   UNL     1     -58.467 -56.477 -28.338  0.00  0.00    +0.000 C 
ATOM     47  C   UNL     1     -58.863 -60.658 -30.467  0.00  0.00    +0.000 C 
ATOM     48  C   UNL     1     -61.384 -60.160 -30.374  0.00  0.00    +0.000 C 
BRANCH  45  49
ATOM     49  O   UNL     1     -58.631 -57.152 -33.129  0.00  0.00    +0.000 OA
ATOM     50  H   UNL     1     -59.130 -56.636 -33.788  0.00  0.00    +0.000 HD
ENDBRANCH  45  49
ENDBRANCH  38  40
ENDBRANCH  37  38
ENDBRANCH  34  37
ENDBRANCH  33  34
ENDBRANCH  31  33
ENDBRANCH  29  32
ENDBRANCH  28  29
ENDBRANCH   1  28
TORSDOF 19
ENDMDL
MODEL 3
REMARK VINA RESULT:      -6.3     39.592     45.553
REMARK  Name = 5281239_Fucoxanthin.pdbqt.pdb
REMARK  19 active torsions:
REMARK  status: ('A' for Active; 'I' for Inactive)
REMARK    1  A    between atoms: C_1  and  C_5
REMARK    2  A    between atoms: C_2  and  C_26
REMARK    3  A    between atoms: C_3  and  C_5
REMARK    4  A    between atoms: C_3  and  C_7
REMARK    5  A    between atoms: C_6  and  C_10
REMARK    6  A    between atoms: C_8  and  C_10
REMARK    7  A    between atoms: C_8  and  C_12
REMARK    8  A    between atoms: C_12  and  C_13
REMARK    9  A    between atoms: C_13  and  C_15
REMARK   10  A    between atoms: C_20  and  O_24
REMARK   11  A    between atoms: C_26  and  C_27
REMARK   12  A    between atoms: C_27  and  C_30
REMARK   13  A    between atoms: C_29  and  C_33
REMARK   14  A    between atoms: C_31  and  C_33
REMARK   15  A    between atoms: C_31  and  C_44
REMARK   16  A    between atoms: C_35  and  O_45
REMARK   17  A    between atoms: C_37  and  O_47
REMARK   18  A    between atoms: C_39  and  C_43
REMARK   19  A    between atoms: O_47  and  C_49
REMARK                            x       y       z     vdW  Elec       q    Type
REMARK                         _______ _______ _______ _____ _____    ______ ____
ROOT
ATOM      1  C   UNL     1     -71.222 -53.363 -29.975  0.00  0.00    +0.000 C 
ATOM      2  C   UNL     1     -71.397 -54.501 -29.638  0.00  0.00    +0.000 C 
ENDROOT
BRANCH   2   3
ATOM      3  C   UNL     1     -71.613 -55.956 -29.204  0.00  0.00    +0.000 C 
BRANCH   3   4
ATOM      4  C   UNL     1     -71.799 -57.185 -28.836  0.00  0.00    +0.000 C 
ATOM      5  C   UNL     1     -71.802 -58.279 -29.860  0.00  0.00    +0.000 C 
BRANCH   4   7
ATOM      6  C   UNL     1     -72.075 -57.762 -26.299  0.00  0.00    +0.000 C 
ATOM      7  C   UNL     1     -71.950 -57.496 -27.464  0.00  0.00    +0.000 C 
BRANCH   6   8
ATOM      8  C   UNL     1     -72.230 -58.102 -24.813  0.00  0.00    +0.000 C 
BRANCH   8   9
ATOM      9  C   UNL     1     -72.363 -58.400 -23.558  0.00  0.00    +0.000 C 
ATOM     10  C   UNL     1     -71.938 -59.745 -23.053  0.00  0.00    +0.000 C 
BRANCH   9  12
ATOM     11  C   UNL     1     -73.570 -56.723 -21.947  0.00  0.00    +0.000 C 
ATOM     12  C   UNL     1     -73.017 -57.495 -22.685  0.00  0.00    +0.000 C 
BRANCH  11  18
ATOM     13  C   UNL     1     -75.688 -55.613 -21.197  0.00  0.00    +0.000 C 
ATOM     14  C   UNL     1     -73.383 -55.059 -20.125  0.00  0.00    +0.000 C 
ATOM     15  C   UNL     1     -76.147 -54.871 -20.015  0.00  0.00    +0.000 C 
ATOM     16  C   UNL     1     -75.610 -54.238 -18.877  0.00  0.00    +0.000 C 
ATOM     17  C   UNL     1     -74.236 -54.447 -19.114  0.00  0.00    +0.000 C 
ATOM     18  C   UNL     1     -74.172 -55.875 -21.137  0.00  0.00    +0.000 C 
ATOM     19  C   UNL     1     -75.999 -54.804 -22.485  0.00  0.00    +0.000 C 
ATOM     20  C   UNL     1     -76.440 -56.978 -21.234  0.00  0.00    +0.000 C 
ATOM     21  C   UNL     1     -72.512 -54.014 -20.828  0.00  0.00    +0.000 C 
BRANCH  14  22
ATOM     22  O   UNL     1     -72.470 -55.905 -19.461  0.00  0.00    +0.000 OA
ATOM     23  H   UNL     1     -72.699 -55.741 -18.527  0.00  0.00    +0.000 HD
ENDBRANCH  14  22
BRANCH  16  24
ATOM     24  O   UNL     1     -76.079 -52.981 -18.518  0.00  0.00    +0.000 OA
BRANCH  24  26
ATOM     25  O   UNL     1     -76.854 -53.462 -16.357  0.00  0.00    +0.000 OA
ATOM     26  C   UNL     1     -76.978 -53.092 -17.510  0.00  0.00    +0.000 C 
ATOM     27  C   UNL     1     -78.365 -52.703 -17.885  0.00  0.00    +0.000 C 
ENDBRANCH  24  26
ENDBRANCH  16  24
ENDBRANCH  11  18
ENDBRANCH   9  12
ENDBRANCH   8   9
ENDBRANCH   6   8
ENDBRANCH   4   7
ENDBRANCH   3   4
ENDBRANCH   2   3
BRANCH   1  28
ATOM     28  C   UNL     1     -70.990 -51.909 -30.402  0.00  0.00    +0.000 C 
BRANCH  28  29
ATOM     29  C   UNL     1     -70.788 -50.684 -30.773  0.00  0.00    +0.000 C 
ATOM     30  C   UNL     1     -71.912 -49.884 -31.358  0.00  0.00    +0.000 C 
BRANCH  29  32
ATOM     31  C   UNL     1     -68.394 -49.651 -30.562  0.00  0.00    +0.000 C 
ATOM     32  C   UNL     1     -69.496 -50.118 -30.660  0.00  0.00    +0.000 C 
BRANCH  31  33
ATOM     33  C   UNL     1     -66.981 -49.070 -30.434  0.00  0.00    +0.000 C 
BRANCH  33  34
ATOM     34  C   UNL     1     -65.786 -48.568 -30.328  0.00  0.00    +0.000 C 
ATOM     35  C   UNL     1     -64.832 -49.270 -29.382  0.00  0.00    +0.000 C 
BRANCH  34  37
ATOM     36  O   UNL     1     -64.698 -46.458 -30.601  0.00  0.00    +0.000 OA
ATOM     37  C   UNL     1     -65.415 -47.331 -31.081  0.00  0.00    +0.000 C 
BRANCH  37  38
ATOM     38  C   UNL     1     -65.890 -47.110 -32.426  0.00  0.00    +0.000 C 
BRANCH  38  40
ATOM     39  O   UNL     1     -66.607 -45.500 -34.019  0.00  0.00    +0.000 OA
ATOM     40  C   UNL     1     -66.386 -46.917 -33.775  0.00  0.00    +0.000 C 
ATOM     41  C   UNL     1     -65.551 -46.090 -34.775  0.00  0.00    +0.000 C 
ATOM     42  C   UNL     1     -67.464 -47.904 -34.352  0.00  0.00    +0.000 C 
ATOM     43  C   UNL     1     -65.880 -46.210 -36.158  0.00  0.00    +0.000 C 
ATOM     44  C   UNL     1     -67.546 -47.652 -35.792  0.00  0.00    +0.000 C 
ATOM     45  C   UNL     1     -66.888 -46.940 -36.813  0.00  0.00    +0.000 C 
ATOM     46  C   UNL     1     -64.170 -45.520 -34.436  0.00  0.00    +0.000 C 
ATOM     47  C   UNL     1     -66.920 -49.324 -34.064  0.00  0.00    +0.000 C 
ATOM     48  C   UNL     1     -68.769 -47.603 -33.583  0.00  0.00    +0.000 C 
BRANCH  45  49
ATOM     49  O   UNL     1     -66.724 -47.469 -38.057  0.00  0.00    +0.000 OA
ATOM     50  H   UNL     1     -66.040 -47.005 -38.571  0.00  0.00    +0.000 HD
ENDBRANCH  45  49
ENDBRANCH  38  40
ENDBRANCH  37  38
ENDBRANCH  34  37
ENDBRANCH  33  34
ENDBRANCH  31  33
ENDBRANCH  29  32
ENDBRANCH  28  29
ENDBRANCH   1  28
TORSDOF 19
ENDMDL
MODEL 4
REMARK VINA RESULT:      -6.2     31.351     37.306
REMARK  Name = 5281239_Fucoxanthin.pdbqt.pdb
REMARK  19 active torsions:
REMARK  status: ('A' for Active; 'I' for Inactive)
REMARK    1  A    between atoms: C_1  and  C_5
REMARK    2  A    between atoms: C_2  and  C_26
REMARK    3  A    between atoms: C_3  and  C_5
REMARK    4  A    between atoms: C_3  and  C_7
REMARK    5  A    between atoms: C_6  and  C_10
REMARK    6  A    between atoms: C_8  and  C_10
REMARK    7  A    between atoms: C_8  and  C_12
REMARK    8  A    between atoms: C_12  and  C_13
REMARK    9  A    between atoms: C_13  and  C_15
REMARK   10  A    between atoms: C_20  and  O_24
REMARK   11  A    between atoms: C_26  and  C_27
REMARK   12  A    between atoms: C_27  and  C_30
REMARK   13  A    between atoms: C_29  and  C_33
REMARK   14  A    between atoms: C_31  and  C_33
REMARK   15  A    between atoms: C_31  and  C_44
REMARK   16  A    between atoms: C_35  and  O_45
REMARK   17  A    between atoms: C_37  and  O_47
REMARK   18  A    between atoms: C_39  and  C_43
REMARK   19  A    between atoms: O_47  and  C_49
REMARK                            x       y       z     vdW  Elec       q    Type
REMARK                         _______ _______ _______ _____ _____    ______ ____
ROOT
ATOM      1  C   UNL     1     -67.733 -56.439 -37.406  0.00  0.00    +0.000 C 
ATOM      2  C   UNL     1     -67.821 -56.970 -36.334  0.00  0.00    +0.000 C 
ENDROOT
BRANCH   2   3
ATOM      3  C   UNL     1     -67.933 -57.643 -34.960  0.00  0.00    +0.000 C 
BRANCH   3   4
ATOM      4  C   UNL     1     -68.029 -58.215 -33.801  0.00  0.00    +0.000 C 
ATOM      5  C   UNL     1     -67.363 -59.535 -33.561  0.00  0.00    +0.000 C 
BRANCH   4   7
ATOM      6  C   UNL     1     -69.305 -57.014 -31.858  0.00  0.00    +0.000 C 
ATOM      7  C   UNL     1     -68.720 -57.566 -32.750  0.00  0.00    +0.000 C 
BRANCH   6   8
ATOM      8  C   UNL     1     -70.051 -56.304 -30.723  0.00  0.00    +0.000 C 
BRANCH   8   9
ATOM      9  C   UNL     1     -70.686 -55.697 -29.769  0.00  0.00    +0.000 C 
ATOM     10  C   UNL     1     -70.546 -54.216 -29.593  0.00  0.00    +0.000 C 
BRANCH   9  12
ATOM     11  C   UNL     1     -72.041 -57.097 -28.017  0.00  0.00    +0.000 C 
ATOM     12  C   UNL     1     -71.421 -56.452 -28.821  0.00  0.00    +0.000 C 
BRANCH  11  18
ATOM     13  C   UNL     1     -74.130 -57.405 -26.668  0.00  0.00    +0.000 C 
ATOM     14  C   UNL     1     -72.119 -59.045 -26.494  0.00  0.00    +0.000 C 
ATOM     15  C   UNL     1     -74.779 -58.500 -25.934  0.00  0.00    +0.000 C 
ATOM     16  C   UNL     1     -74.473 -59.783 -25.442  0.00  0.00    +0.000 C 
ATOM     17  C   UNL     1     -73.119 -59.869 -25.826  0.00  0.00    +0.000 C 
ATOM     18  C   UNL     1     -72.721 -57.807 -27.139  0.00  0.00    +0.000 C 
ATOM     19  C   UNL     1     -74.008 -56.154 -25.756  0.00  0.00    +0.000 C 
ATOM     20  C   UNL     1     -75.007 -57.069 -27.912  0.00  0.00    +0.000 C 
ATOM     21  C   UNL     1     -70.980 -58.667 -25.542  0.00  0.00    +0.000 C 
BRANCH  14  22
ATOM     22  O   UNL     1     -71.511 -59.836 -27.491  0.00  0.00    +0.000 OA
ATOM     23  H   UNL     1     -70.939 -59.182 -27.935  0.00  0.00    +0.000 HD
ENDBRANCH  14  22
BRANCH  16  24
ATOM     24  O   UNL     1     -74.862 -60.125 -24.154  0.00  0.00    +0.000 OA
BRANCH  24  26
ATOM     25  O   UNL     1     -74.176 -62.296 -23.590  0.00  0.00    +0.000 OA
ATOM     26  C   UNL     1     -74.952 -61.473 -24.038  0.00  0.00    +0.000 C 
ATOM     27  C   UNL     1     -76.221 -62.046 -24.564  0.00  0.00    +0.000 C 
ENDBRANCH  24  26
ENDBRANCH  16  24
ENDBRANCH  11  18
ENDBRANCH   9  12
ENDBRANCH   8   9
ENDBRANCH   6   8
ENDBRANCH   4   7
ENDBRANCH   3   4
ENDBRANCH   2   3
BRANCH   1  28
ATOM     28  C   UNL     1     -67.619 -55.750 -38.771  0.00  0.00    +0.000 C 
BRANCH  28  29
ATOM     29  C   UNL     1     -67.528 -55.177 -39.929  0.00  0.00    +0.000 C 
ATOM     30  C   UNL     1     -68.348 -53.960 -40.230  0.00  0.00    +0.000 C 
BRANCH  29  32
ATOM     31  C   UNL     1     -65.954 -56.198 -41.753  0.00  0.00    +0.000 C 
ATOM     32  C   UNL     1     -66.681 -55.726 -40.921  0.00  0.00    +0.000 C 
BRANCH  31  33
ATOM     33  C   UNL     1     -65.017 -56.807 -42.803  0.00  0.00    +0.000 C 
BRANCH  33  34
ATOM     34  C   UNL     1     -64.229 -57.327 -43.697  0.00  0.00    +0.000 C 
ATOM     35  C   UNL     1     -64.847 -57.659 -45.040  0.00  0.00    +0.000 C 
BRANCH  34  37
ATOM     36  O   UNL     1     -61.871 -56.973 -43.856  0.00  0.00    +0.000 OA
ATOM     37  C   UNL     1     -62.798 -57.614 -43.371  0.00  0.00    +0.000 C 
BRANCH  37  38
ATOM     38  C   UNL     1     -62.444 -58.672 -42.455  0.00  0.00    +0.000 C 
BRANCH  38  40
ATOM     39  O   UNL     1     -60.654 -59.862 -41.442  0.00  0.00    +0.000 OA
ATOM     40  C   UNL     1     -62.100 -59.715 -41.508  0.00  0.00    +0.000 C 
ATOM     41  C   UNL     1     -61.268 -59.355 -40.259  0.00  0.00    +0.000 C 
ATOM     42  C   UNL     1     -62.941 -61.042 -41.479  0.00  0.00    +0.000 C 
ATOM     43  C   UNL     1     -61.247 -60.305 -39.193  0.00  0.00    +0.000 C 
ATOM     44  C   UNL     1     -62.566 -61.758 -40.258  0.00  0.00    +0.000 C 
ATOM     45  C   UNL     1     -61.832 -61.577 -39.070  0.00  0.00    +0.000 C 
ATOM     46  C   UNL     1     -60.848 -57.922 -39.923  0.00  0.00    +0.000 C 
ATOM     47  C   UNL     1     -64.421 -60.591 -41.430  0.00  0.00    +0.000 C 
ATOM     48  C   UNL     1     -62.594 -61.793 -42.783  0.00  0.00    +0.000 C 
BRANCH  45  49
ATOM     49  O   UNL     1     -62.270 -62.074 -37.880  0.00  0.00    +0.000 OA
ATOM     50  H   UNL     1     -62.754 -62.913 -37.984  0.00  0.00    +0.000 HD
ENDBRANCH  45  49
ENDBRANCH  38  40
ENDBRANCH  37  38
ENDBRANCH  34  37
ENDBRANCH  33  34
ENDBRANCH  31  33
ENDBRANCH  29  32
ENDBRANCH  28  29
ENDBRANCH   1  28
TORSDOF 19
ENDMDL
MODEL 5
REMARK VINA RESULT:      -6.1     41.054     46.403
REMARK  Name = 5281239_Fucoxanthin.pdbqt.pdb
REMARK  19 active torsions:
REMARK  status: ('A' for Active; 'I' for Inactive)
REMARK    1  A    between atoms: C_1  and  C_5
REMARK    2  A    between atoms: C_2  and  C_26
REMARK    3  A    between atoms: C_3  and  C_5
REMARK    4  A    between atoms: C_3  and  C_7
REMARK    5  A    between atoms: C_6  and  C_10
REMARK    6  A    between atoms: C_8  and  C_10
REMARK    7  A    between atoms: C_8  and  C_12
REMARK    8  A    between atoms: C_12  and  C_13
REMARK    9  A    between atoms: C_13  and  C_15
REMARK   10  A    between atoms: C_20  and  O_24
REMARK   11  A    between atoms: C_26  and  C_27
REMARK   12  A    between atoms: C_27  and  C_30
REMARK   13  A    between atoms: C_29  and  C_33
REMARK   14  A    between atoms: C_31  and  C_33
REMARK   15  A    between atoms: C_31  and  C_44
REMARK   16  A    between atoms: C_35  and  O_45
REMARK   17  A    between atoms: C_37  and  O_47
REMARK   18  A    between atoms: C_39  and  C_43
REMARK   19  A    between atoms: O_47  and  C_49
REMARK                            x       y       z     vdW  Elec       q    Type
REMARK                         _______ _______ _______ _____ _____    ______ ____
ROOT
ATOM      1  C   UNL     1     -61.595 -52.465 -24.110  0.00  0.00    +0.000 C 
ATOM      2  C   UNL     1     -61.596 -51.742 -25.067  0.00  0.00    +0.000 C 
ENDROOT
BRANCH   2   3
ATOM      3  C   UNL     1     -61.598 -50.824 -26.295  0.00  0.00    +0.000 C 
BRANCH   3   4
ATOM      4  C   UNL     1     -61.604 -50.046 -27.331  0.00  0.00    +0.000 C 
ATOM      5  C   UNL     1     -60.309 -49.589 -27.931  0.00  0.00    +0.000 C 
BRANCH   4   7
ATOM      6  C   UNL     1     -63.874 -49.350 -28.430  0.00  0.00    +0.000 C 
ATOM      7  C   UNL     1     -62.833 -49.671 -27.926  0.00  0.00    +0.000 C 
BRANCH   6   8
ATOM      8  C   UNL     1     -65.201 -48.937 -29.077  0.00  0.00    +0.000 C 
BRANCH   8   9
ATOM      9  C   UNL     1     -66.323 -48.579 -29.620  0.00  0.00    +0.000 C 
ATOM     10  C   UNL     1     -67.581 -48.558 -28.808  0.00  0.00    +0.000 C 
BRANCH   9  12
ATOM     11  C   UNL     1     -66.433 -48.097 -32.193  0.00  0.00    +0.000 C 
ATOM     12  C   UNL     1     -66.380 -48.319 -31.013  0.00  0.00    +0.000 C 
BRANCH  11  18
ATOM     13  C   UNL     1     -66.031 -46.524 -34.102  0.00  0.00    +0.000 C 
ATOM     14  C   UNL     1     -67.089 -48.876 -34.448  0.00  0.00    +0.000 C 
ATOM     15  C   UNL     1     -65.924 -46.621 -35.565  0.00  0.00    +0.000 C 
ATOM     16  C   UNL     1     -66.206 -47.536 -36.597  0.00  0.00    +0.000 C 
ATOM     17  C   UNL     1     -66.768 -48.584 -35.841  0.00  0.00    +0.000 C 
ATOM     18  C   UNL     1     -66.496 -47.857 -33.488  0.00  0.00    +0.000 C 
ATOM     19  C   UNL     1     -67.052 -45.420 -33.717  0.00  0.00    +0.000 C 
ATOM     20  C   UNL     1     -64.624 -46.165 -33.536  0.00  0.00    +0.000 C 
ATOM     21  C   UNL     1     -68.601 -49.006 -34.240  0.00  0.00    +0.000 C 
BRANCH  14  22
ATOM     22  O   UNL     1     -66.570 -50.152 -34.148  0.00  0.00    +0.000 OA
ATOM     23  H   UNL     1     -65.991 -50.311 -34.915  0.00  0.00    +0.000 HD
ENDBRANCH  14  22
BRANCH  16  24
ATOM     24  O   UNL     1     -66.836 -47.083 -37.749  0.00  0.00    +0.000 OA
BRANCH  24  26
ATOM     25  O   UNL     1     -68.774 -46.025 -36.955  0.00  0.00    +0.000 OA
ATOM     26  C   UNL     1     -67.662 -46.050 -37.449  0.00  0.00    +0.000 C 
ATOM     27  C   UNL     1     -67.114 -44.711 -37.799  0.00  0.00    +0.000 C 
ENDBRANCH  24  26
ENDBRANCH  16  24
ENDBRANCH  11  18
ENDBRANCH   9  12
ENDBRANCH   8   9
ENDBRANCH   6   8
ENDBRANCH   4   7
ENDBRANCH   3   4
ENDBRANCH   2   3
BRANCH   1  28
ATOM     28  C   UNL     1     -61.596 -53.398 -22.893  0.00  0.00    +0.000 C 
BRANCH  28  29
ATOM     29  C   UNL     1     -61.592 -54.194 -21.870  0.00  0.00    +0.000 C 
ATOM     30  C   UNL     1     -60.576 -55.291 -21.779  0.00  0.00    +0.000 C 
BRANCH  29  32
ATOM     31  C   UNL     1     -63.397 -53.913 -19.998  0.00  0.00    +0.000 C 
ATOM     32  C   UNL     1     -62.573 -54.047 -20.861  0.00  0.00    +0.000 C 
BRANCH  31  33
ATOM     33  C   UNL     1     -64.440 -53.732 -18.888  0.00  0.00    +0.000 C 
BRANCH  33  34
ATOM     34  C   UNL     1     -65.330 -53.584 -17.952  0.00  0.00    +0.000 C 
ATOM     35  C   UNL     1     -66.360 -52.492 -18.156  0.00  0.00    +0.000 C 
BRANCH  34  37
ATOM     36  O   UNL     1     -66.196 -54.455 -15.902  0.00  0.00    +0.000 OA
ATOM     37  C   UNL     1     -65.283 -54.434 -16.722  0.00  0.00    +0.000 C 
BRANCH  37  38
ATOM     38  C   UNL     1     -64.147 -55.281 -16.448  0.00  0.00    +0.000 C 
BRANCH  38  40
ATOM     39  O   UNL     1     -62.268 -56.384 -17.396  0.00  0.00    +0.000 OA
ATOM     40  C   UNL     1     -62.987 -56.103 -16.163  0.00  0.00    +0.000 C 
ATOM     41  C   UNL     1     -61.578 -55.551 -16.467  0.00  0.00    +0.000 C 
ATOM     42  C   UNL     1     -63.111 -57.287 -15.138  0.00  0.00    +0.000 C 
ATOM     43  C   UNL     1     -60.470 -56.219 -15.863  0.00  0.00    +0.000 C 
ATOM     44  C   UNL     1     -61.749 -57.733 -14.833  0.00  0.00    +0.000 C 
ATOM     45  C   UNL     1     -60.407 -57.357 -15.040  0.00  0.00    +0.000 C 
ATOM     46  C   UNL     1     -61.334 -54.132 -16.988  0.00  0.00    +0.000 C 
ATOM     47  C   UNL     1     -63.793 -56.682 -13.888  0.00  0.00    +0.000 C 
ATOM     48  C   UNL     1     -63.984 -58.357 -15.830  0.00  0.00    +0.000 C 
BRANCH  45  49
ATOM     49  O   UNL     1     -59.468 -57.511 -14.067  0.00  0.00    +0.000 OA
ATOM     50  H   UNL     1     -59.842 -57.425 -13.172  0.00  0.00    +0.000 HD
ENDBRANCH  45  49
ENDBRANCH  38  40
ENDBRANCH  37  38
ENDBRANCH  34  37
ENDBRANCH  33  34
ENDBRANCH  31  33
ENDBRANCH  29  32
ENDBRANCH  28  29
ENDBRANCH   1  28
TORSDOF 19
ENDMDL
MODEL 6
REMARK VINA RESULT:      -6.1      3.948     13.926
REMARK  Name = 5281239_Fucoxanthin.pdbqt.pdb
REMARK  19 active torsions:
REMARK  status: ('A' for Active; 'I' for Inactive)
REMARK    1  A    between atoms: C_1  and  C_5
REMARK    2  A    between atoms: C_2  and  C_26
REMARK    3  A    between atoms: C_3  and  C_5
REMARK    4  A    between atoms: C_3  and  C_7
REMARK    5  A    between atoms: C_6  and  C_10
REMARK    6  A    between atoms: C_8  and  C_10
REMARK    7  A    between atoms: C_8  and  C_12
REMARK    8  A    between atoms: C_12  and  C_13
REMARK    9  A    between atoms: C_13  and  C_15
REMARK   10  A    between atoms: C_20  and  O_24
REMARK   11  A    between atoms: C_26  and  C_27
REMARK   12  A    between atoms: C_27  and  C_30
REMARK   13  A    between atoms: C_29  and  C_33
REMARK   14  A    between atoms: C_31  and  C_33
REMARK   15  A    between atoms: C_31  and  C_44
REMARK   16  A    between atoms: C_35  and  O_45
REMARK   17  A    between atoms: C_37  and  O_47
REMARK   18  A    between atoms: C_39  and  C_43
REMARK   19  A    between atoms: O_47  and  C_49
REMARK                            x       y       z     vdW  Elec       q    Type
REMARK                         _______ _______ _______ _____ _____    ______ ____
ROOT
ATOM      1  C   UNL     1     -63.068 -63.740 -70.890  0.00  0.00    +0.000 C 
ATOM      2  C   UNL     1     -62.056 -63.925 -70.271  0.00  0.00    +0.000 C 
ENDROOT
BRANCH   2   3
ATOM      3  C   UNL     1     -60.764 -64.154 -69.479  0.00  0.00    +0.000 C 
BRANCH   3   4
ATOM      4  C   UNL     1     -59.669 -64.345 -68.813  0.00  0.00    +0.000 C 
ATOM      5  C   UNL     1     -59.039 -65.705 -68.784  0.00  0.00    +0.000 C 
BRANCH   4   7
ATOM      6  C   UNL     1     -58.516 -62.336 -67.597  0.00  0.00    +0.000 C 
ATOM      7  C   UNL     1     -59.044 -63.259 -68.155  0.00  0.00    +0.000 C 
BRANCH   6   8
ATOM      8  C   UNL     1     -57.846 -61.157 -66.882  0.00  0.00    +0.000 C 
BRANCH   8   9
ATOM      9  C   UNL     1     -57.279 -60.165 -66.269  0.00  0.00    +0.000 C 
ATOM     10  C   UNL     1     -57.816 -59.686 -64.955  0.00  0.00    +0.000 C 
BRANCH   9  12
ATOM     11  C   UNL     1     -55.329 -58.862 -67.436  0.00  0.00    +0.000 C 
ATOM     12  C   UNL     1     -56.224 -59.458 -66.897  0.00  0.00    +0.000 C 
BRANCH  11  18
ATOM     13  C   UNL     1     -54.585 -57.244 -69.199  0.00  0.00    +0.000 C 
ATOM     14  C   UNL     1     -52.899 -58.430 -67.613  0.00  0.00    +0.000 C 
ATOM     15  C   UNL     1     -53.390 -56.435 -69.474  0.00  0.00    +0.000 C 
ATOM     16  C   UNL     1     -52.050 -56.334 -69.055  0.00  0.00    +0.000 C 
ATOM     17  C   UNL     1     -52.008 -57.399 -68.132  0.00  0.00    +0.000 C 
ATOM     18  C   UNL     1     -54.346 -58.212 -68.027  0.00  0.00    +0.000 C 
ATOM     19  C   UNL     1     -54.965 -58.074 -70.455  0.00  0.00    +0.000 C 
ATOM     20  C   UNL     1     -55.751 -56.276 -68.831  0.00  0.00    +0.000 C 
ATOM     21  C   UNL     1     -52.423 -59.831 -68.011  0.00  0.00    +0.000 C 
BRANCH  14  22
ATOM     22  O   UNL     1     -52.812 -58.403 -66.206  0.00  0.00    +0.000 OA
ATOM     23  H   UNL     1     -52.598 -57.466 -66.043  0.00  0.00    +0.000 HD
ENDBRANCH  14  22
BRANCH  16  24
ATOM     24  O   UNL     1     -51.051 -56.191 -70.009  0.00  0.00    +0.000 OA
BRANCH  24  26
ATOM     25  O   UNL     1     -50.960 -54.129 -71.124  0.00  0.00    +0.000 OA
ATOM     26  C   UNL     1     -50.763 -54.878 -70.185  0.00  0.00    +0.000 C 
ATOM     27  C   UNL     1     -50.073 -54.246 -69.028  0.00  0.00    +0.000 C 
ENDBRANCH  24  26
ENDBRANCH  16  24
ENDBRANCH  11  18
ENDBRANCH   9  12
ENDBRANCH   8   9
ENDBRANCH   6   8
ENDBRANCH   4   7
ENDBRANCH   3   4
ENDBRANCH   2   3
BRANCH   1  28
ATOM     28  C   UNL     1     -64.358 -63.493 -71.680  0.00  0.00    +0.000 C 
BRANCH  28  29
ATOM     29  C   UNL     1     -65.443 -63.284 -72.357  0.00  0.00    +0.000 C 
ATOM     30  C   UNL     1     -66.729 -63.921 -71.927  0.00  0.00    +0.000 C 
BRANCH  29  32
ATOM     31  C   UNL     1     -65.376 -61.796 -74.508  0.00  0.00    +0.000 C 
ATOM     32  C   UNL     1     -65.401 -62.483 -73.523  0.00  0.00    +0.000 C 
BRANCH  31  33
ATOM     33  C   UNL     1     -65.357 -60.911 -75.760  0.00  0.00    +0.000 C 
BRANCH  33  34
ATOM     34  C   UNL     1     -65.350 -60.164 -76.824  0.00  0.00    +0.000 C 
ATOM     35  C   UNL     1     -64.058 -60.116 -77.615  0.00  0.00    +0.000 C 
BRANCH  34  37
ATOM     36  O   UNL     1     -66.644 -58.761 -78.262  0.00  0.00    +0.000 OA
ATOM     37  C   UNL     1     -66.559 -59.367 -77.198  0.00  0.00    +0.000 C 
BRANCH  37  38
ATOM     38  C   UNL     1     -67.694 -59.280 -76.311  0.00  0.00    +0.000 C 
BRANCH  38  40
ATOM     39  O   UNL     1     -68.837 -60.353 -74.526  0.00  0.00    +0.000 OA
ATOM     40  C   UNL     1     -68.849 -59.219 -75.436  0.00  0.00    +0.000 C 
ATOM     41  C   UNL     1     -68.635 -59.081 -73.913  0.00  0.00    +0.000 C 
ATOM     42  C   UNL     1     -70.246 -58.808 -76.026  0.00  0.00    +0.000 C 
ATOM     43  C   UNL     1     -69.758 -58.676 -73.130  0.00  0.00    +0.000 C 
ATOM     44  C   UNL     1     -71.130 -58.546 -74.888  0.00  0.00    +0.000 C 
ATOM     45  C   UNL     1     -71.090 -58.403 -73.487  0.00  0.00    +0.000 C 
ATOM     46  C   UNL     1     -67.251 -58.926 -73.278  0.00  0.00    +0.000 C 
ATOM     47  C   UNL     1     -69.987 -57.518 -76.841  0.00  0.00    +0.000 C 
ATOM     48  C   UNL     1     -70.695 -59.989 -76.914  0.00  0.00    +0.000 C 
BRANCH  45  49
ATOM     49  O   UNL     1     -71.849 -57.472 -72.845  0.00  0.00    +0.000 OA
ATOM     50  H   UNL     1     -71.316 -56.734 -72.499  0.00  0.00    +0.000 HD
ENDBRANCH  45  49
ENDBRANCH  38  40
ENDBRANCH  37  38
ENDBRANCH  34  37
ENDBRANCH  33  34
ENDBRANCH  31  33
ENDBRANCH  29  32
ENDBRANCH  28  29
ENDBRANCH   1  28
TORSDOF 19
ENDMDL
MODEL 7
REMARK VINA RESULT:      -6.1     40.618     46.680
REMARK  Name = 5281239_Fucoxanthin.pdbqt.pdb
REMARK  19 active torsions:
REMARK  status: ('A' for Active; 'I' for Inactive)
REMARK    1  A    between atoms: C_1  and  C_5
REMARK    2  A    between atoms: C_2  and  C_26
REMARK    3  A    between atoms: C_3  and  C_5
REMARK    4  A    between atoms: C_3  and  C_7
REMARK    5  A    between atoms: C_6  and  C_10
REMARK    6  A    between atoms: C_8  and  C_10
REMARK    7  A    between atoms: C_8  and  C_12
REMARK    8  A    between atoms: C_12  and  C_13
REMARK    9  A    between atoms: C_13  and  C_15
REMARK   10  A    between atoms: C_20  and  O_24
REMARK   11  A    between atoms: C_26  and  C_27
REMARK   12  A    between atoms: C_27  and  C_30
REMARK   13  A    between atoms: C_29  and  C_33
REMARK   14  A    between atoms: C_31  and  C_33
REMARK   15  A    between atoms: C_31  and  C_44
REMARK   16  A    between atoms: C_35  and  O_45
REMARK   17  A    between atoms: C_37  and  O_47
REMARK   18  A    between atoms: C_39  and  C_43
REMARK   19  A    between atoms: O_47  and  C_49
REMARK                            x       y       z     vdW  Elec       q    Type
REMARK                         _______ _______ _______ _____ _____    ______ ____
ROOT
ATOM      1  C   UNL     1     -73.650 -56.439 -21.372  0.00  0.00    +0.000 C 
ATOM      2  C   UNL     1     -73.247 -57.115 -22.278  0.00  0.00    +0.000 C 
ENDROOT
BRANCH   2   3
ATOM      3  C   UNL     1     -72.725 -57.976 -23.434  0.00  0.00    +0.000 C 
BRANCH   3   4
ATOM      4  C   UNL     1     -72.287 -58.707 -24.411  0.00  0.00    +0.000 C 
ATOM      5  C   UNL     1     -72.190 -60.193 -24.247  0.00  0.00    +0.000 C 
BRANCH   4   7
ATOM      6  C   UNL     1     -71.666 -57.596 -26.696  0.00  0.00    +0.000 C 
ATOM      7  C   UNL     1     -71.950 -58.105 -25.646  0.00  0.00    +0.000 C 
BRANCH   6   8
ATOM      8  C   UNL     1     -71.308 -56.946 -28.038  0.00  0.00    +0.000 C 
BRANCH   8   9
ATOM      9  C   UNL     1     -71.013 -56.388 -29.171  0.00  0.00    +0.000 C 
ATOM     10  C   UNL     1     -71.112 -54.902 -29.328  0.00  0.00    +0.000 C 
BRANCH   9  12
ATOM     11  C   UNL     1     -70.446 -57.877 -31.251  0.00  0.00    +0.000 C 
ATOM     12  C   UNL     1     -70.708 -57.196 -30.294  0.00  0.00    +0.000 C 
BRANCH  11  18
ATOM     13  C   UNL     1     -69.010 -58.281 -33.264  0.00  0.00    +0.000 C 
ATOM     14  C   UNL     1     -71.003 -59.838 -32.653  0.00  0.00    +0.000 C 
ATOM     15  C   UNL     1     -68.716 -59.407 -34.161  0.00  0.00    +0.000 C 
ATOM     16  C   UNL     1     -69.227 -60.680 -34.479  0.00  0.00    +0.000 C 
ATOM     17  C   UNL     1     -70.348 -60.707 -33.624  0.00  0.00    +0.000 C 
ATOM     18  C   UNL     1     -70.162 -58.621 -32.302  0.00  0.00    +0.000 C 
ATOM     19  C   UNL     1     -69.413 -57.033 -34.095  0.00  0.00    +0.000 C 
ATOM     20  C   UNL     1     -67.726 -57.974 -32.435  0.00  0.00    +0.000 C 
ATOM     21  C   UNL     1     -72.397 -59.419 -33.130  0.00  0.00    +0.000 C 
BRANCH  14  22
ATOM     22  O   UNL     1     -71.231 -60.596 -31.486  0.00  0.00    +0.000 OA
ATOM     23  H   UNL     1     -71.975 -60.111 -31.084  0.00  0.00    +0.000 HD
ENDBRANCH  14  22
BRANCH  16  24
ATOM     24  O   UNL     1     -69.350 -61.046 -35.813  0.00  0.00    +0.000 OA
BRANCH  24  26
ATOM     25  O   UNL     1     -67.216 -61.080 -36.787  0.00  0.00    +0.000 OA
ATOM     26  C   UNL     1     -68.187 -61.586 -36.255  0.00  0.00    +0.000 C 
ATOM     27  C   UNL     1     -68.089 -63.058 -36.065  0.00  0.00    +0.000 C 
ENDBRANCH  24  26
ENDBRANCH  16  24
ENDBRANCH  11  18
ENDBRANCH   9  12
ENDBRANCH   8   9
ENDBRANCH   6   8
ENDBRANCH   4   7
ENDBRANCH   3   4
ENDBRANCH   2   3
BRANCH   1  28
ATOM     28  C   UNL     1     -74.155 -55.572 -20.213  0.00  0.00    +0.000 C 
BRANCH  28  29
ATOM     29  C   UNL     1     -74.590 -54.837 -19.240  0.00  0.00    +0.000 C 
ATOM     30  C   UNL     1     -75.725 -55.317 -18.387  0.00  0.00    +0.000 C 
BRANCH  29  32
ATOM     31  C   UNL     1     -73.541 -52.477 -18.821  0.00  0.00    +0.000 C 
ATOM     32  C   UNL     1     -74.017 -53.563 -19.009  0.00  0.00    +0.000 C 
BRANCH  31  33
ATOM     33  C   UNL     1     -72.945 -51.083 -18.590  0.00  0.00    +0.000 C 
BRANCH  33  34
ATOM     34  C   UNL     1     -72.432 -49.905 -18.391  0.00  0.00    +0.000 C 
ATOM     35  C   UNL     1     -72.395 -49.409 -16.960  0.00  0.00    +0.000 C 
BRANCH  34  37
ATOM     36  O   UNL     1     -72.711 -48.402 -20.228  0.00  0.00    +0.000 OA
ATOM     37  C   UNL     1     -71.953 -49.083 -19.545  0.00  0.00    +0.000 C 
BRANCH  37  38
ATOM     38  C   UNL     1     -70.556 -49.055 -19.907  0.00  0.00    +0.000 C 
BRANCH  38  40
ATOM     39  O   UNL     1     -69.022 -48.715 -21.689  0.00  0.00    +0.000 OA
ATOM     40  C   UNL     1     -69.152 -48.992 -20.268  0.00  0.00    +0.000 C 
ATOM     41  C   UNL     1     -68.575 -47.673 -20.823  0.00  0.00    +0.000 C 
ATOM     42  C   UNL     1     -68.150 -50.040 -19.663  0.00  0.00    +0.000 C 
ATOM     43  C   UNL     1     -67.154 -47.536 -20.835  0.00  0.00    +0.000 C 
ATOM     44  C   UNL     1     -66.799 -49.558 -19.957  0.00  0.00    +0.000 C 
ATOM     45  C   UNL     1     -66.132 -48.423 -20.457  0.00  0.00    +0.000 C 
ATOM     46  C   UNL     1     -69.400 -46.388 -20.943  0.00  0.00    +0.000 C 
ATOM     47  C   UNL     1     -68.424 -50.043 -18.140  0.00  0.00    +0.000 C 
ATOM     48  C   UNL     1     -68.496 -51.391 -20.328  0.00  0.00    +0.000 C 
BRANCH  45  49
ATOM     49  O   UNL     1     -64.950 -48.002 -19.928  0.00  0.00    +0.000 OA
ATOM     50  H   UNL     1     -64.719 -47.098 -20.206  0.00  0.00    +0.000 HD
ENDBRANCH  45  49
ENDBRANCH  38  40
ENDBRANCH  37  38
ENDBRANCH  34  37
ENDBRANCH  33  34
ENDBRANCH  31  33
ENDBRANCH  29  32
ENDBRANCH  28  29
ENDBRANCH   1  28
TORSDOF 19
ENDMDL
MODEL 8
REMARK VINA RESULT:      -6.1     30.399     36.378
REMARK  Name = 5281239_Fucoxanthin.pdbqt.pdb
REMARK  19 active torsions:
REMARK  status: ('A' for Active; 'I' for Inactive)
REMARK    1  A    between atoms: C_1  and  C_5
REMARK    2  A    between atoms: C_2  and  C_26
REMARK    3  A    between atoms: C_3  and  C_5
REMARK    4  A    between atoms: C_3  and  C_7
REMARK    5  A    between atoms: C_6  and  C_10
REMARK    6  A    between atoms: C_8  and  C_10
REMARK    7  A    between atoms: C_8  and  C_12
REMARK    8  A    between atoms: C_12  and  C_13
REMARK    9  A    between atoms: C_13  and  C_15
REMARK   10  A    between atoms: C_20  and  O_24
REMARK   11  A    between atoms: C_26  and  C_27
REMARK   12  A    between atoms: C_27  and  C_30
REMARK   13  A    between atoms: C_29  and  C_33
REMARK   14  A    between atoms: C_31  and  C_33
REMARK   15  A    between atoms: C_31  and  C_44
REMARK   16  A    between atoms: C_35  and  O_45
REMARK   17  A    between atoms: C_37  and  O_47
REMARK   18  A    between atoms: C_39  and  C_43
REMARK   19  A    between atoms: O_47  and  C_49
REMARK                            x       y       z     vdW  Elec       q    Type
REMARK                         _______ _______ _______ _____ _____    ______ ____
ROOT
ATOM      1  C   UNL     1     -67.795 -56.539 -37.284  0.00  0.00    +0.000 C 
ATOM      2  C   UNL     1     -67.837 -57.122 -36.236  0.00  0.00    +0.000 C 
ENDROOT
BRANCH   2   3
ATOM      3  C   UNL     1     -67.891 -57.860 -34.893  0.00  0.00    +0.000 C 
BRANCH   3   4
ATOM      4  C   UNL     1     -67.932 -58.485 -33.758  0.00  0.00    +0.000 C 
ATOM      5  C   UNL     1     -67.073 -59.693 -33.538  0.00  0.00    +0.000 C 
BRANCH   4   7
ATOM      6  C   UNL     1     -69.441 -57.578 -31.822  0.00  0.00    +0.000 C 
ATOM      7  C   UNL     1     -68.749 -57.994 -32.712  0.00  0.00    +0.000 C 
BRANCH   6   8
ATOM      8  C   UNL     1     -70.319 -57.044 -30.685  0.00  0.00    +0.000 C 
BRANCH   8   9
ATOM      9  C   UNL     1     -71.054 -56.590 -29.718  0.00  0.00    +0.000 C 
ATOM     10  C   UNL     1     -71.373 -55.128 -29.636  0.00  0.00    +0.000 C 
BRANCH   9  12
ATOM     11  C   UNL     1     -71.797 -58.193 -27.784  0.00  0.00    +0.000 C 
ATOM     12  C   UNL     1     -71.459 -57.458 -28.674  0.00  0.00    +0.000 C 
BRANCH  11  18
ATOM     13  C   UNL     1     -72.882 -60.338 -27.076  0.00  0.00    +0.000 C 
ATOM     14  C   UNL     1     -71.947 -58.628 -25.353  0.00  0.00    +0.000 C 
ATOM     15  C   UNL     1     -72.910 -61.176 -25.869  0.00  0.00    +0.000 C 
ATOM     16  C   UNL     1     -72.563 -61.097 -24.507  0.00  0.00    +0.000 C 
ATOM     17  C   UNL     1     -72.101 -59.766 -24.455  0.00  0.00    +0.000 C 
ATOM     18  C   UNL     1     -72.165 -59.003 -26.811  0.00  0.00    +0.000 C 
ATOM     19  C   UNL     1     -74.330 -60.036 -27.546  0.00  0.00    +0.000 C 
ATOM     20  C   UNL     1     -72.115 -61.117 -28.188  0.00  0.00    +0.000 C 
ATOM     21  C   UNL     1     -72.859 -57.467 -24.946  0.00  0.00    +0.000 C 
BRANCH  14  22
ATOM     22  O   UNL     1     -70.636 -58.132 -25.194  0.00  0.00    +0.000 OA
ATOM     23  H   UNL     1     -70.426 -58.427 -24.289  0.00  0.00    +0.000 HD
ENDBRANCH  14  22
BRANCH  16  24
ATOM     24  O   UNL     1     -73.455 -61.569 -23.553  0.00  0.00    +0.000 OA
BRANCH  24  26
ATOM     25  O   UNL     1     -71.734 -62.743 -22.474  0.00  0.00    +0.000 OA
ATOM     26  C   UNL     1     -72.882 -62.569 -22.837  0.00  0.00    +0.000 C 
ATOM     27  C   UNL     1     -73.825 -63.649 -22.437  0.00  0.00    +0.000 C 
ENDBRANCH  24  26
ENDBRANCH  16  24
ENDBRANCH  11  18
ENDBRANCH   9  12
ENDBRANCH   8   9
ENDBRANCH   6   8
ENDBRANCH   4   7
ENDBRANCH   3   4
ENDBRANCH   2   3
BRANCH   1  28
ATOM     28  C   UNL     1     -67.742 -55.785 -38.618  0.00  0.00    +0.000 C 
BRANCH  28  29
ATOM     29  C   UNL     1     -67.708 -55.146 -39.744  0.00  0.00    +0.000 C 
ATOM     30  C   UNL     1     -68.608 -53.968 -39.964  0.00  0.00    +0.000 C 
BRANCH  29  32
ATOM     31  C   UNL     1     -66.109 -55.968 -41.645  0.00  0.00    +0.000 C 
ATOM     32  C   UNL     1     -66.847 -55.586 -40.778  0.00  0.00    +0.000 C 
BRANCH  31  33
ATOM     33  C   UNL     1     -65.159 -56.463 -42.742  0.00  0.00    +0.000 C 
BRANCH  33  34
ATOM     34  C   UNL     1     -64.349 -56.889 -43.665  0.00  0.00    +0.000 C 
ATOM     35  C   UNL     1     -62.869 -56.659 -43.434  0.00  0.00    +0.000 C 
BRANCH  34  37
ATOM     36  O   UNL     1     -66.084 -57.724 -45.080  0.00  0.00    +0.000 OA
ATOM     37  C   UNL     1     -64.885 -57.528 -44.906  0.00  0.00    +0.000 C 
BRANCH  37  38
ATOM     38  C   UNL     1     -64.001 -57.944 -45.969  0.00  0.00    +0.000 C 
BRANCH  38  40
ATOM     39  O   UNL     1     -63.738 -58.222 -48.313  0.00  0.00    +0.000 OA
ATOM     40  C   UNL     1     -63.101 -58.388 -47.016  0.00  0.00    +0.000 C 
ATOM     41  C   UNL     1     -62.617 -57.373 -48.074  0.00  0.00    +0.000 C 
ATOM     42  C   UNL     1     -62.260 -59.698 -46.810  0.00  0.00    +0.000 C 
ATOM     43  C   UNL     1     -61.484 -57.741 -48.861  0.00  0.00    +0.000 C 
ATOM     44  C   UNL     1     -61.250 -59.729 -47.870  0.00  0.00    +0.000 C 
ATOM     45  C   UNL     1     -60.713 -58.916 -48.887  0.00  0.00    +0.000 C 
ATOM     46  C   UNL     1     -62.980 -55.886 -48.029  0.00  0.00    +0.000 C 
ATOM     47  C   UNL     1     -61.603 -59.553 -45.416  0.00  0.00    +0.000 C 
ATOM     48  C   UNL     1     -63.271 -60.865 -46.868  0.00  0.00    +0.000 C 
BRANCH  45  49
ATOM     49  O   UNL     1     -59.381 -58.917 -49.169  0.00  0.00    +0.000 OA
ATOM     50  H   UNL     1     -59.169 -59.444 -49.960  0.00  0.00    +0.000 HD
ENDBRANCH  45  49
ENDBRANCH  38  40
ENDBRANCH  37  38
ENDBRANCH  34  37
ENDBRANCH  33  34
ENDBRANCH  31  33
ENDBRANCH  29  32
ENDBRANCH  28  29
ENDBRANCH   1  28
TORSDOF 19
ENDMDL
MODEL 9
REMARK VINA RESULT:      -6.0     24.162     30.704
REMARK  Name = 5281239_Fucoxanthin.pdbqt.pdb
REMARK  19 active torsions:
REMARK  status: ('A' for Active; 'I' for Inactive)
REMARK    1  A    between atoms: C_1  and  C_5
REMARK    2  A    between atoms: C_2  and  C_26
REMARK    3  A    between atoms: C_3  and  C_5
REMARK    4  A    between atoms: C_3  and  C_7
REMARK    5  A    between atoms: C_6  and  C_10
REMARK    6  A    between atoms: C_8  and  C_10
REMARK    7  A    between atoms: C_8  and  C_12
REMARK    8  A    between atoms: C_12  and  C_13
REMARK    9  A    between atoms: C_13  and  C_15
REMARK   10  A    between atoms: C_20  and  O_24
REMARK   11  A    between atoms: C_26  and  C_27
REMARK   12  A    between atoms: C_27  and  C_30
REMARK   13  A    between atoms: C_29  and  C_33
REMARK   14  A    between atoms: C_31  and  C_33
REMARK   15  A    between atoms: C_31  and  C_44
REMARK   16  A    between atoms: C_35  and  O_45
REMARK   17  A    between atoms: C_37  and  O_47
REMARK   18  A    between atoms: C_39  and  C_43
REMARK   19  A    between atoms: O_47  and  C_49
REMARK                            x       y       z     vdW  Elec       q    Type
REMARK                         _______ _______ _______ _____ _____    ______ ____
ROOT
ATOM      1  C   UNL     1     -65.764 -56.061 -41.571  0.00  0.00    +0.000 C 
ATOM      2  C   UNL     1     -64.907 -56.430 -42.325  0.00  0.00    +0.000 C 
ENDROOT
BRANCH   2   3
ATOM      3  C   UNL     1     -63.807 -56.896 -43.287  0.00  0.00    +0.000 C 
BRANCH   3   4
ATOM      4  C   UNL     1     -62.880 -57.289 -44.103  0.00  0.00    +0.000 C 
ATOM      5  C   UNL     1     -61.815 -58.229 -43.627  0.00  0.00    +0.000 C 
BRANCH   4   7
ATOM      6  C   UNL     1     -62.924 -56.512 -46.601  0.00  0.00    +0.000 C 
ATOM      7  C   UNL     1     -62.905 -56.870 -45.454  0.00  0.00    +0.000 C 
BRANCH   6   8
ATOM      8  C   UNL     1     -62.942 -56.058 -48.065  0.00  0.00    +0.000 C 
BRANCH   8   9
ATOM      9  C   UNL     1     -62.947 -55.673 -49.303  0.00  0.00    +0.000 C 
ATOM     10  C   UNL     1     -64.065 -54.822 -49.823  0.00  0.00    +0.000 C 
BRANCH   9  12
ATOM     11  C   UNL     1     -61.112 -56.558 -50.950  0.00  0.00    +0.000 C 
ATOM     12  C   UNL     1     -61.956 -56.154 -50.194  0.00  0.00    +0.000 C 
BRANCH  11  18
ATOM     13  C   UNL     1     -60.531 -57.830 -53.029  0.00  0.00    +0.000 C 
ATOM     14  C   UNL     1     -58.711 -56.747 -51.518  0.00  0.00    +0.000 C 
ATOM     15  C   UNL     1     -59.378 -57.934 -53.934  0.00  0.00    +0.000 C 
ATOM     16  C   UNL     1     -58.015 -57.582 -53.970  0.00  0.00    +0.000 C 
ATOM     17  C   UNL     1     -57.884 -57.003 -52.691  0.00  0.00    +0.000 C 
ATOM     18  C   UNL     1     -60.188 -56.997 -51.781  0.00  0.00    +0.000 C 
ATOM     19  C   UNL     1     -60.975 -59.245 -52.571  0.00  0.00    +0.000 C 
ATOM     20  C   UNL     1     -61.693 -57.135 -53.803  0.00  0.00    +0.000 C 
ATOM     21  C   UNL     1     -58.228 -57.553 -50.308  0.00  0.00    +0.000 C 
BRANCH  14  22
ATOM     22  O   UNL     1     -58.529 -55.397 -51.152  0.00  0.00    +0.000 OA
ATOM     23  H   UNL     1     -59.439 -55.134 -50.926  0.00  0.00    +0.000 HD
ENDBRANCH  14  22
BRANCH  16  24
ATOM     24  O   UNL     1     -57.088 -58.513 -54.419  0.00  0.00    +0.000 OA
BRANCH  24  26
ATOM     25  O   UNL     1     -56.913 -59.116 -56.680  0.00  0.00    +0.000 OA
ATOM     26  C   UNL     1     -56.860 -58.339 -55.745  0.00  0.00    +0.000 C 
ATOM     27  C   UNL     1     -56.464 -56.954 -56.117  0.00  0.00    +0.000 C 
ENDBRANCH  24  26
ENDBRANCH  16  24
ENDBRANCH  11  18
ENDBRANCH   9  12
ENDBRANCH   8   9
ENDBRANCH   6   8
ENDBRANCH   4   7
ENDBRANCH   3   4
ENDBRANCH   2   3
BRANCH   1  28
ATOM     28  C   UNL     1     -66.853 -55.582 -40.604  0.00  0.00    +0.000 C 
BRANCH  28  29
ATOM     29  C   UNL     1     -67.772 -55.187 -39.780  0.00  0.00    +0.000 C 
ATOM     30  C   UNL     1     -68.601 -53.982 -40.105  0.00  0.00    +0.000 C 
BRANCH  29  32
ATOM     31  C   UNL     1     -68.115 -56.449 -37.514  0.00  0.00    +0.000 C 
ATOM     32  C   UNL     1     -67.963 -55.873 -38.557  0.00  0.00    +0.000 C 
BRANCH  31  33
ATOM     33  C   UNL     1     -68.295 -57.175 -36.176  0.00  0.00    +0.000 C 
BRANCH  33  34
ATOM     34  C   UNL     1     -68.457 -57.791 -35.042  0.00  0.00    +0.000 C 
ATOM     35  C   UNL     1     -67.285 -57.773 -34.082  0.00  0.00    +0.000 C 
BRANCH  34  37
ATOM     36  O   UNL     1     -70.231 -59.314 -35.533  0.00  0.00    +0.000 OA
ATOM     37  C   UNL     1     -69.734 -58.513 -34.749  0.00  0.00    +0.000 C 
BRANCH  37  38
ATOM     38  C   UNL     1     -70.442 -58.295 -33.510  0.00  0.00    +0.000 C 
BRANCH  38  40
ATOM     39  O   UNL     1     -72.436 -58.690 -32.281  0.00  0.00    +0.000 OA
ATOM     40  C   UNL     1     -71.128 -58.055 -32.255  0.00  0.00    +0.000 C 
ATOM     41  C   UNL     1     -71.505 -59.256 -31.361  0.00  0.00    +0.000 C 
ATOM     42  C   UNL     1     -71.050 -56.635 -31.589  0.00  0.00    +0.000 C 
ATOM     43  C   UNL     1     -71.850 -58.977 -30.004  0.00  0.00    +0.000 C 
ATOM     44  C   UNL     1     -71.566 -56.773 -30.225  0.00  0.00    +0.000 C 
ATOM     45  C   UNL     1     -71.955 -57.763 -29.303  0.00  0.00    +0.000 C 
ATOM     46  C   UNL     1     -71.120 -60.699 -31.698  0.00  0.00    +0.000 C 
ATOM     47  C   UNL     1     -69.548 -56.262 -31.583  0.00  0.00    +0.000 C 
ATOM     48  C   UNL     1     -71.888 -55.698 -32.488  0.00  0.00    +0.000 C 
BRANCH  45  49
ATOM     49  O   UNL     1     -71.668 -57.652 -27.976  0.00  0.00    +0.000 OA
ATOM     50  H   UNL     1     -71.406 -56.747 -27.728  0.00  0.00    +0.000 HD
ENDBRANCH  45  49
ENDBRANCH  38  40
ENDBRANCH  37  38
ENDBRANCH  34  37
ENDBRANCH  33  34
ENDBRANCH  31  33
ENDBRANCH  29  32
ENDBRANCH  28  29
ENDBRANCH   1  28
TORSDOF 19
ENDMDL
