MODEL 1
REMARK VINA RESULT:      -6.6      0.000      0.000
REMARK  Name = 5281224_Astaxanthin.pdbqt.pdb
REMARK  16 active torsions:
REMARK  status: ('A' for Active; 'I' for Inactive)
REMARK    1  A    between atoms: C_1  and  C_5
REMARK    2  A    between atoms: C_2  and  C_27
REMARK    3  A    between atoms: C_3  and  C_5
REMARK    4  A    between atoms: C_3  and  C_7
REMARK    5  A    between atoms: C_6  and  C_10
REMARK    6  A    between atoms: C_8  and  C_10
REMARK    7  A    between atoms: C_8  and  C_12
REMARK    8  A    between atoms: C_11  and  C_16
REMARK    9  A    between atoms: C_17  and  O_23
REMARK   10  A    between atoms: C_25  and  C_27
REMARK   11  A    between atoms: C_25  and  C_29
REMARK   12  A    between atoms: C_28  and  C_32
REMARK   13  A    between atoms: C_30  and  C_32
REMARK   14  A    between atoms: C_30  and  C_34
REMARK   15  A    between atoms: C_33  and  C_38
REMARK   16  A    between atoms: C_39  and  O_45
REMARK                            x       y       z     vdW  Elec       q    Type
REMARK                         _______ _______ _______ _____ _____    ______ ____
ROOT
ATOM      1  C   UNL     1     -69.194 -56.933 -34.004  0.00  0.00    +0.000 C 
ATOM      2  C   UNL     1     -69.494 -56.377 -32.985  0.00  0.00    +0.000 C 
ENDROOT
BRANCH   2   3
ATOM      3  C   UNL     1     -69.886 -55.665 -31.683  0.00  0.00    +0.000 C 
BRANCH   3   4
ATOM      4  C   UNL     1     -70.217 -55.058 -30.587  0.00  0.00    +0.000 C 
ATOM      5  C   UNL     1     -69.963 -53.588 -30.440  0.00  0.00    +0.000 C 
BRANCH   4   7
ATOM      6  C   UNL     1     -71.195 -56.425 -28.583  0.00  0.00    +0.000 C 
ATOM      7  C   UNL     1     -70.745 -55.797 -29.501  0.00  0.00    +0.000 C 
BRANCH   6   8
ATOM      8  C   UNL     1     -71.771 -57.230 -27.412  0.00  0.00    +0.000 C 
BRANCH   8   9
ATOM      9  C   UNL     1     -72.259 -57.917 -26.426  0.00  0.00    +0.000 C 
ATOM     10  C   UNL     1     -71.875 -59.356 -26.256  0.00  0.00    +0.000 C 
BRANCH   9  12
ATOM     11  C   UNL     1     -73.694 -56.706 -24.600  0.00  0.00    +0.000 C 
ATOM     12  C   UNL     1     -73.029 -57.268 -25.430  0.00  0.00    +0.000 C 
BRANCH  11  16
ATOM     13  O   UNL     1     -76.452 -52.886 -23.247  0.00  0.00    +0.000 OA
ATOM     14  C   UNL     1     -74.694 -56.705 -22.235  0.00  0.00    +0.000 C 
ATOM     15  C   UNL     1     -75.534 -55.800 -21.469  0.00  0.00    +0.000 C 
ATOM     16  C   UNL     1     -74.503 -56.018 -23.612  0.00  0.00    +0.000 C 
ATOM     17  C   UNL     1     -76.159 -54.570 -21.648  0.00  0.00    +0.000 C 
ATOM     18  C   UNL     1     -75.416 -58.057 -22.442  0.00  0.00    +0.000 C 
ATOM     19  C   UNL     1     -73.321 -56.869 -21.548  0.00  0.00    +0.000 C 
ATOM     20  C   UNL     1     -75.065 -54.812 -23.920  0.00  0.00    +0.000 C 
ATOM     21  C   UNL     1     -75.942 -53.967 -22.982  0.00  0.00    +0.000 C 
ATOM     22  C   UNL     1     -74.827 -54.224 -25.318  0.00  0.00    +0.000 C 
BRANCH  17  23
ATOM     23  O   UNL     1     -76.915 -53.968 -20.677  0.00  0.00    +0.000 OA
ATOM     24  H   UNL     1     -77.841 -54.282 -20.716  0.00  0.00    +0.000 HD
ENDBRANCH  17  23
ENDBRANCH  11  16
ENDBRANCH   9  12
ENDBRANCH   8   9
ENDBRANCH   6   8
ENDBRANCH   4   7
ENDBRANCH   3   4
ENDBRANCH   2   3
BRANCH   1  25
ATOM     25  C   UNL     1     -68.820 -57.643 -35.311  0.00  0.00    +0.000 C 
BRANCH  25  26
ATOM     26  C   UNL     1     -68.504 -58.239 -36.418  0.00  0.00    +0.000 C 
ATOM     27  C   UNL     1     -68.509 -59.737 -36.487  0.00  0.00    +0.000 C 
BRANCH  26  29
ATOM     28  C   UNL     1     -67.706 -56.839 -38.478  0.00  0.00    +0.000 C 
ATOM     29  C   UNL     1     -68.072 -57.481 -37.531  0.00  0.00    +0.000 C 
BRANCH  28  30
ATOM     30  C   UNL     1     -67.238 -56.023 -39.689  0.00  0.00    +0.000 C 
BRANCH  30  31
ATOM     31  C   UNL     1     -66.851 -55.333 -40.715  0.00  0.00    +0.000 C 
ATOM     32  C   UNL     1     -66.841 -53.835 -40.649  0.00  0.00    +0.000 C 
BRANCH  31  34
ATOM     33  C   UNL     1     -65.795 -56.550 -42.782  0.00  0.00    +0.000 C 
ATOM     34  C   UNL     1     -66.291 -55.994 -41.837  0.00  0.00    +0.000 C 
BRANCH  33  38
ATOM     35  O   UNL     1     -65.954 -58.075 -47.437  0.00  0.00    +0.000 OA
ATOM     36  C   UNL     1     -63.749 -57.776 -43.728  0.00  0.00    +0.000 C 
ATOM     37  C   UNL     1     -63.403 -58.370 -45.009  0.00  0.00    +0.000 C 
ATOM     38  C   UNL     1     -65.181 -57.212 -43.916  0.00  0.00    +0.000 C 
ATOM     39  C   UNL     1     -63.987 -58.545 -46.260  0.00  0.00    +0.000 C 
ATOM     40  C   UNL     1     -62.785 -56.612 -43.402  0.00  0.00    +0.000 C 
ATOM     41  C   UNL     1     -63.763 -58.857 -42.625  0.00  0.00    +0.000 C 
ATOM     42  C   UNL     1     -65.867 -57.311 -45.093  0.00  0.00    +0.000 C 
ATOM     43  C   UNL     1     -65.349 -57.981 -46.376  0.00  0.00    +0.000 C 
ATOM     44  C   UNL     1     -67.274 -56.704 -45.179  0.00  0.00    +0.000 C 
BRANCH  39  45
ATOM     45  O   UNL     1     -63.356 -59.178 -47.296  0.00  0.00    +0.000 OA
ATOM     46  H   UNL     1     -63.198 -60.121 -47.082  0.00  0.00    +0.000 HD
ENDBRANCH  39  45
ENDBRANCH  33  38
ENDBRANCH  31  34
ENDBRANCH  30  31
ENDBRANCH  28  30
ENDBRANCH  26  29
ENDBRANCH  25  26
ENDBRANCH   1  25
TORSDOF 16
ENDMDL
MODEL 2
REMARK VINA RESULT:      -6.6      5.122     22.045
REMARK  Name = 5281224_Astaxanthin.pdbqt.pdb
REMARK  16 active torsions:
REMARK  status: ('A' for Active; 'I' for Inactive)
REMARK    1  A    between atoms: C_1  and  C_5
REMARK    2  A    between atoms: C_2  and  C_27
REMARK    3  A    between atoms: C_3  and  C_5
REMARK    4  A    between atoms: C_3  and  C_7
REMARK    5  A    between atoms: C_6  and  C_10
REMARK    6  A    between atoms: C_8  and  C_10
REMARK    7  A    between atoms: C_8  and  C_12
REMARK    8  A    between atoms: C_11  and  C_16
REMARK    9  A    between atoms: C_17  and  O_23
REMARK   10  A    between atoms: C_25  and  C_27
REMARK   11  A    between atoms: C_25  and  C_29
REMARK   12  A    between atoms: C_28  and  C_32
REMARK   13  A    between atoms: C_30  and  C_32
REMARK   14  A    between atoms: C_30  and  C_34
REMARK   15  A    between atoms: C_33  and  C_38
REMARK   16  A    between atoms: C_39  and  O_45
REMARK                            x       y       z     vdW  Elec       q    Type
REMARK                         _______ _______ _______ _____ _____    ______ ____
ROOT
ATOM      1  C   UNL     1     -65.759 -56.051 -41.677  0.00  0.00    +0.000 C 
ATOM      2  C   UNL     1     -64.914 -56.450 -42.430  0.00  0.00    +0.000 C 
ENDROOT
BRANCH   2   3
ATOM      3  C   UNL     1     -63.827 -56.960 -43.385  0.00  0.00    +0.000 C 
BRANCH   3   4
ATOM      4  C   UNL     1     -62.911 -57.397 -44.190  0.00  0.00    +0.000 C 
ATOM      5  C   UNL     1     -61.841 -58.313 -43.678  0.00  0.00    +0.000 C 
BRANCH   4   7
ATOM      6  C   UNL     1     -62.846 -56.562 -46.669  0.00  0.00    +0.000 C 
ATOM      7  C   UNL     1     -62.874 -56.946 -45.532  0.00  0.00    +0.000 C 
BRANCH   6   8
ATOM      8  C   UNL     1     -62.814 -56.070 -48.120  0.00  0.00    +0.000 C 
BRANCH   8   9
ATOM      9  C   UNL     1     -62.794 -55.653 -49.349  0.00  0.00    +0.000 C 
ATOM     10  C   UNL     1     -63.732 -54.568 -49.784  0.00  0.00    +0.000 C 
BRANCH   9  12
ATOM     11  C   UNL     1     -60.924 -56.487 -50.982  0.00  0.00    +0.000 C 
ATOM     12  C   UNL     1     -61.788 -56.115 -50.232  0.00  0.00    +0.000 C 
BRANCH  11  16
ATOM     13  O   UNL     1     -56.240 -56.450 -52.423  0.00  0.00    +0.000 OA
ATOM     14  C   UNL     1     -60.272 -57.887 -53.033  0.00  0.00    +0.000 C 
ATOM     15  C   UNL     1     -59.041 -58.141 -53.761  0.00  0.00    +0.000 C 
ATOM     16  C   UNL     1     -59.877 -56.919 -51.887  0.00  0.00    +0.000 C 
ATOM     17  C   UNL     1     -57.704 -57.763 -53.694  0.00  0.00    +0.000 C 
ATOM     18  C   UNL     1     -60.811 -59.202 -52.420  0.00  0.00    +0.000 C 
ATOM     19  C   UNL     1     -61.305 -57.200 -53.953  0.00  0.00    +0.000 C 
ATOM     20  C   UNL     1     -58.599 -56.474 -51.705  0.00  0.00    +0.000 C 
ATOM     21  C   UNL     1     -57.389 -56.842 -52.579  0.00  0.00    +0.000 C 
ATOM     22  C   UNL     1     -58.310 -55.529 -50.530  0.00  0.00    +0.000 C 
BRANCH  17  23
ATOM     23  O   UNL     1     -56.757 -58.207 -54.577  0.00  0.00    +0.000 OA
ATOM     24  H   UNL     1     -55.884 -57.812 -54.377  0.00  0.00    +0.000 HD
ENDBRANCH  17  23
ENDBRANCH  11  16
ENDBRANCH   9  12
ENDBRANCH   8   9
ENDBRANCH   6   8
ENDBRANCH   4   7
ENDBRANCH   3   4
ENDBRANCH   2   3
BRANCH   1  25
ATOM     25  C   UNL     1     -66.832 -55.542 -40.708  0.00  0.00    +0.000 C 
BRANCH  25  26
ATOM     26  C   UNL     1     -67.740 -55.107 -39.892  0.00  0.00    +0.000 C 
ATOM     27  C   UNL     1     -68.582 -53.926 -40.273  0.00  0.00    +0.000 C 
BRANCH  26  29
ATOM     28  C   UNL     1     -67.993 -56.187 -37.523  0.00  0.00    +0.000 C 
ATOM     29  C   UNL     1     -67.877 -55.689 -38.610  0.00  0.00    +0.000 C 
BRANCH  28  30
ATOM     30  C   UNL     1     -68.142 -56.825 -36.136  0.00  0.00    +0.000 C 
BRANCH  30  31
ATOM     31  C   UNL     1     -68.277 -57.362 -34.965  0.00  0.00    +0.000 C 
ATOM     32  C   UNL     1     -67.285 -58.380 -34.490  0.00  0.00    +0.000 C 
BRANCH  31  34
ATOM     33  C   UNL     1     -70.120 -56.455 -33.338  0.00  0.00    +0.000 C 
ATOM     34  C   UNL     1     -69.266 -56.871 -34.076  0.00  0.00    +0.000 C 
BRANCH  33  38
ATOM     35  O   UNL     1     -74.264 -53.932 -32.642  0.00  0.00    +0.000 OA
ATOM     36  C   UNL     1     -71.063 -56.301 -30.956  0.00  0.00    +0.000 C 
ATOM     37  C   UNL     1     -72.221 -55.673 -30.342  0.00  0.00    +0.000 C 
ATOM     38  C   UNL     1     -71.161 -55.951 -32.463  0.00  0.00    +0.000 C 
ATOM     39  C   UNL     1     -73.308 -54.899 -30.737  0.00  0.00    +0.000 C 
ATOM     40  C   UNL     1     -71.137 -57.837 -30.787  0.00  0.00    +0.000 C 
ATOM     41  C   UNL     1     -69.762 -55.706 -30.372  0.00  0.00    +0.000 C 
ATOM     42  C   UNL     1     -72.177 -55.204 -32.984  0.00  0.00    +0.000 C 
ATOM     43  C   UNL     1     -73.347 -54.603 -32.186  0.00  0.00    +0.000 C 
ATOM     44  C   UNL     1     -72.189 -54.927 -34.494  0.00  0.00    +0.000 C 
BRANCH  39  45
ATOM     45  O   UNL     1     -74.262 -54.452 -29.864  0.00  0.00    +0.000 OA
ATOM     46  H   UNL     1     -74.751 -53.693 -30.244  0.00  0.00    +0.000 HD
ENDBRANCH  39  45
ENDBRANCH  33  38
ENDBRANCH  31  34
ENDBRANCH  30  31
ENDBRANCH  28  30
ENDBRANCH  26  29
ENDBRANCH  25  26
ENDBRANCH   1  25
TORSDOF 16
ENDMDL
MODEL 3
REMARK VINA RESULT:      -6.6      7.230     12.550
REMARK  Name = 5281224_Astaxanthin.pdbqt.pdb
REMARK  16 active torsions:
REMARK  status: ('A' for Active; 'I' for Inactive)
REMARK    1  A    between atoms: C_1  and  C_5
REMARK    2  A    between atoms: C_2  and  C_27
REMARK    3  A    between atoms: C_3  and  C_5
REMARK    4  A    between atoms: C_3  and  C_7
REMARK    5  A    between atoms: C_6  and  C_10
REMARK    6  A    between atoms: C_8  and  C_10
REMARK    7  A    between atoms: C_8  and  C_12
REMARK    8  A    between atoms: C_11  and  C_16
REMARK    9  A    between atoms: C_17  and  O_23
REMARK   10  A    between atoms: C_25  and  C_27
REMARK   11  A    between atoms: C_25  and  C_29
REMARK   12  A    between atoms: C_28  and  C_32
REMARK   13  A    between atoms: C_30  and  C_32
REMARK   14  A    between atoms: C_30  and  C_34
REMARK   15  A    between atoms: C_33  and  C_38
REMARK   16  A    between atoms: C_39  and  O_45
REMARK                            x       y       z     vdW  Elec       q    Type
REMARK                         _______ _______ _______ _____ _____    ______ ____
ROOT
ATOM      1  C   UNL     1     -73.229 -56.894 -22.382  0.00  0.00    +0.000 C 
ATOM      2  C   UNL     1     -73.542 -56.188 -21.464  0.00  0.00    +0.000 C 
ENDROOT
BRANCH   2   3
ATOM      3  C   UNL     1     -73.933 -55.284 -20.288  0.00  0.00    +0.000 C 
BRANCH   3   4
ATOM      4  C   UNL     1     -74.258 -54.522 -19.291  0.00  0.00    +0.000 C 
ATOM      5  C   UNL     1     -73.561 -53.210 -19.096  0.00  0.00    +0.000 C 
BRANCH   4   7
ATOM      6  C   UNL     1     -76.020 -55.342 -17.540  0.00  0.00    +0.000 C 
ATOM      7  C   UNL     1     -75.213 -54.964 -18.345  0.00  0.00    +0.000 C 
BRANCH   6   8
ATOM      8  C   UNL     1     -77.048 -55.826 -16.511  0.00  0.00    +0.000 C 
BRANCH   8   9
ATOM      9  C   UNL     1     -77.923 -56.238 -15.646  0.00  0.00    +0.000 C 
ATOM     10  C   UNL     1     -79.325 -56.534 -16.084  0.00  0.00    +0.000 C 
BRANCH   9  12
ATOM     11  C   UNL     1     -77.183 -56.831 -13.204  0.00  0.00    +0.000 C 
ATOM     12  C   UNL     1     -77.513 -56.551 -14.327  0.00  0.00    +0.000 C 
BRANCH  11  16
ATOM     13  O   UNL     1     -75.063 -55.680  -8.938  0.00  0.00    +0.000 OA
ATOM     14  C   UNL     1     -77.180 -58.590 -11.335  0.00  0.00    +0.000 C 
ATOM     15  C   UNL     1     -76.677 -58.649  -9.973  0.00  0.00    +0.000 C 
ATOM     16  C   UNL     1     -76.799 -57.178 -11.850  0.00  0.00    +0.000 C 
ATOM     17  C   UNL     1     -75.993 -57.823  -9.087  0.00  0.00    +0.000 C 
ATOM     18  C   UNL     1     -78.721 -58.731 -11.341  0.00  0.00    +0.000 C 
ATOM     19  C   UNL     1     -76.488 -59.660 -12.207  0.00  0.00    +0.000 C 
ATOM     20  C   UNL     1     -76.131 -56.267 -11.082  0.00  0.00    +0.000 C 
ATOM     21  C   UNL     1     -75.661 -56.489  -9.635  0.00  0.00    +0.000 C 
ATOM     22  C   UNL     1     -75.814 -54.890 -11.682  0.00  0.00    +0.000 C 
BRANCH  17  23
ATOM     23  O   UNL     1     -75.659 -58.205  -7.815  0.00  0.00    +0.000 OA
ATOM     24  H   UNL     1     -74.717 -58.012  -7.631  0.00  0.00    +0.000 HD
ENDBRANCH  17  23
ENDBRANCH  11  16
ENDBRANCH   9  12
ENDBRANCH   8   9
ENDBRANCH   6   8
ENDBRANCH   4   7
ENDBRANCH   3   4
ENDBRANCH   2   3
BRANCH   1  25
ATOM     25  C   UNL     1     -72.820 -57.795 -23.554  0.00  0.00    +0.000 C 
BRANCH  25  26
ATOM     26  C   UNL     1     -72.473 -58.560 -24.540  0.00  0.00    +0.000 C 
ATOM     27  C   UNL     1     -72.408 -60.046 -24.346  0.00  0.00    +0.000 C 
BRANCH  26  29
ATOM     28  C   UNL     1     -71.735 -57.504 -26.816  0.00  0.00    +0.000 C 
ATOM     29  C   UNL     1     -72.072 -57.990 -25.771  0.00  0.00    +0.000 C 
BRANCH  28  30
ATOM     30  C   UNL     1     -71.306 -56.883 -28.152  0.00  0.00    +0.000 C 
BRANCH  30  31
ATOM     31  C   UNL     1     -70.946 -56.366 -29.284  0.00  0.00    +0.000 C 
ATOM     32  C   UNL     1     -70.693 -54.892 -29.387  0.00  0.00    +0.000 C 
BRANCH  31  34
ATOM     33  C   UNL     1     -70.363 -57.941 -31.295  0.00  0.00    +0.000 C 
ATOM     34  C   UNL     1     -70.640 -57.213 -30.378  0.00  0.00    +0.000 C 
BRANCH  33  38
ATOM     35  O   UNL     1     -70.900 -62.172 -33.711  0.00  0.00    +0.000 OA
ATOM     36  C   UNL     1     -68.951 -58.323 -33.404  0.00  0.00    +0.000 C 
ATOM     37  C   UNL     1     -68.810 -59.398 -34.372  0.00  0.00    +0.000 C 
ATOM     38  C   UNL     1     -70.014 -58.823 -32.392  0.00  0.00    +0.000 C 
ATOM     39  C   UNL     1     -69.348 -60.662 -34.600  0.00  0.00    +0.000 C 
ATOM     40  C   UNL     1     -69.476 -57.045 -34.099  0.00  0.00    +0.000 C 
ATOM     41  C   UNL     1     -67.612 -58.088 -32.670  0.00  0.00    +0.000 C 
ATOM     42  C   UNL     1     -70.624 -60.040 -32.500  0.00  0.00    +0.000 C 
ATOM     43  C   UNL     1     -70.359 -61.078 -33.603  0.00  0.00    +0.000 C 
ATOM     44  C   UNL     1     -71.675 -60.433 -31.453  0.00  0.00    +0.000 C 
BRANCH  39  45
ATOM     45  O   UNL     1     -68.980 -61.450 -35.656  0.00  0.00    +0.000 OA
ATOM     46  H   UNL     1     -68.948 -60.928 -36.484  0.00  0.00    +0.000 HD
ENDBRANCH  39  45
ENDBRANCH  33  38
ENDBRANCH  31  34
ENDBRANCH  30  31
ENDBRANCH  28  30
ENDBRANCH  26  29
ENDBRANCH  25  26
ENDBRANCH   1  25
TORSDOF 16
ENDMDL
MODEL 4
REMARK VINA RESULT:      -6.5      5.105      9.717
REMARK  Name = 5281224_Astaxanthin.pdbqt.pdb
REMARK  16 active torsions:
REMARK  status: ('A' for Active; 'I' for Inactive)
REMARK    1  A    between atoms: C_1  and  C_5
REMARK    2  A    between atoms: C_2  and  C_27
REMARK    3  A    between atoms: C_3  and  C_5
REMARK    4  A    between atoms: C_3  and  C_7
REMARK    5  A    between atoms: C_6  and  C_10
REMARK    6  A    between atoms: C_8  and  C_10
REMARK    7  A    between atoms: C_8  and  C_12
REMARK    8  A    between atoms: C_11  and  C_16
REMARK    9  A    between atoms: C_17  and  O_23
REMARK   10  A    between atoms: C_25  and  C_27
REMARK   11  A    between atoms: C_25  and  C_29
REMARK   12  A    between atoms: C_28  and  C_32
REMARK   13  A    between atoms: C_30  and  C_32
REMARK   14  A    between atoms: C_30  and  C_34
REMARK   15  A    between atoms: C_33  and  C_38
REMARK   16  A    between atoms: C_39  and  O_45
REMARK                            x       y       z     vdW  Elec       q    Type
REMARK                         _______ _______ _______ _____ _____    ______ ____
ROOT
ATOM      1  C   UNL     1     -64.905 -56.412 -42.445  0.00  0.00    +0.000 C 
ATOM      2  C   UNL     1     -65.743 -56.005 -41.689  0.00  0.00    +0.000 C 
ENDROOT
BRANCH   2   3
ATOM      3  C   UNL     1     -66.818 -55.492 -40.722  0.00  0.00    +0.000 C 
BRANCH   3   4
ATOM      4  C   UNL     1     -67.728 -55.065 -39.905  0.00  0.00    +0.000 C 
ATOM      5  C   UNL     1     -68.570 -53.882 -40.277  0.00  0.00    +0.000 C 
BRANCH   4   7
ATOM      6  C   UNL     1     -67.991 -56.174 -37.550  0.00  0.00    +0.000 C 
ATOM      7  C   UNL     1     -67.872 -55.664 -38.630  0.00  0.00    +0.000 C 
BRANCH   6   8
ATOM      8  C   UNL     1     -68.140 -56.826 -36.171  0.00  0.00    +0.000 C 
BRANCH   8   9
ATOM      9  C   UNL     1     -68.273 -57.374 -35.002  0.00  0.00    +0.000 C 
ATOM     10  C   UNL     1     -67.273 -58.387 -34.534  0.00  0.00    +0.000 C 
BRANCH   9  12
ATOM     11  C   UNL     1     -70.110 -56.486 -33.360  0.00  0.00    +0.000 C 
ATOM     12  C   UNL     1     -69.273 -56.904 -34.115  0.00  0.00    +0.000 C 
BRANCH  11  16
ATOM     13  O   UNL     1     -74.214 -53.946 -32.508  0.00  0.00    +0.000 OA
ATOM     14  C   UNL     1     -70.943 -56.298 -30.939  0.00  0.00    +0.000 C 
ATOM     15  C   UNL     1     -72.070 -55.660 -30.281  0.00  0.00    +0.000 C 
ATOM     16  C   UNL     1     -71.109 -55.969 -32.445  0.00  0.00    +0.000 C 
ATOM     17  C   UNL     1     -73.173 -54.889 -30.635  0.00  0.00    +0.000 C 
ATOM     18  C   UNL     1     -71.010 -57.832 -30.746  0.00  0.00    +0.000 C 
ATOM     19  C   UNL     1     -69.616 -55.699 -30.424  0.00  0.00    +0.000 C 
ATOM     20  C   UNL     1     -72.148 -55.225 -32.928  0.00  0.00    +0.000 C 
ATOM     21  C   UNL     1     -73.278 -54.612 -32.085  0.00  0.00    +0.000 C 
ATOM     22  C   UNL     1     -72.229 -54.969 -34.439  0.00  0.00    +0.000 C 
BRANCH  17  23
ATOM     23  O   UNL     1     -74.087 -54.430 -29.726  0.00  0.00    +0.000 OA
ATOM     24  H   UNL     1     -74.061 -54.966 -28.907  0.00  0.00    +0.000 HD
ENDBRANCH  17  23
ENDBRANCH  11  16
ENDBRANCH   9  12
ENDBRANCH   8   9
ENDBRANCH   6   8
ENDBRANCH   4   7
ENDBRANCH   3   4
ENDBRANCH   2   3
BRANCH   1  25
ATOM     25  C   UNL     1     -63.836 -56.943 -43.407  0.00  0.00    +0.000 C 
BRANCH  25  26
ATOM     26  C   UNL     1     -62.929 -57.390 -44.218  0.00  0.00    +0.000 C 
ATOM     27  C   UNL     1     -61.857 -58.306 -43.707  0.00  0.00    +0.000 C 
BRANCH  26  29
ATOM     28  C   UNL     1     -62.871 -56.566 -46.700  0.00  0.00    +0.000 C 
ATOM     29  C   UNL     1     -62.898 -56.946 -45.561  0.00  0.00    +0.000 C 
BRANCH  28  30
ATOM     30  C   UNL     1     -62.836 -56.078 -48.154  0.00  0.00    +0.000 C 
BRANCH  30  31
ATOM     31  C   UNL     1     -62.803 -55.674 -49.384  0.00  0.00    +0.000 C 
ATOM     32  C   UNL     1     -63.786 -54.647 -49.860  0.00  0.00    +0.000 C 
BRANCH  31  34
ATOM     33  C   UNL     1     -60.859 -56.446 -50.962  0.00  0.00    +0.000 C 
ATOM     34  C   UNL     1     -61.744 -56.084 -50.232  0.00  0.00    +0.000 C 
BRANCH  33  38
ATOM     35  O   UNL     1     -56.158 -56.451 -52.347  0.00  0.00    +0.000 OA
ATOM     36  C   UNL     1     -60.190 -57.878 -52.983  0.00  0.00    +0.000 C 
ATOM     37  C   UNL     1     -58.951 -58.148 -53.694  0.00  0.00    +0.000 C 
ATOM     38  C   UNL     1     -59.803 -56.896 -51.848  0.00  0.00    +0.000 C 
ATOM     39  C   UNL     1     -57.612 -57.775 -53.616  0.00  0.00    +0.000 C 
ATOM     40  C   UNL     1     -60.741 -59.182 -52.358  0.00  0.00    +0.000 C 
ATOM     41  C   UNL     1     -61.208 -57.200 -53.926  0.00  0.00    +0.000 C 
ATOM     42  C   UNL     1     -58.526 -56.453 -51.656  0.00  0.00    +0.000 C 
ATOM     43  C   UNL     1     -57.307 -56.840 -52.510  0.00  0.00    +0.000 C 
ATOM     44  C   UNL     1     -58.246 -55.493 -50.492  0.00  0.00    +0.000 C 
BRANCH  39  45
ATOM     45  O   UNL     1     -56.658 -58.234 -54.482  0.00  0.00    +0.000 OA
ATOM     46  H   UNL     1     -55.984 -57.545 -54.652  0.00  0.00    +0.000 HD
ENDBRANCH  39  45
ENDBRANCH  33  38
ENDBRANCH  31  34
ENDBRANCH  30  31
ENDBRANCH  28  30
ENDBRANCH  26  29
ENDBRANCH  25  26
ENDBRANCH   1  25
TORSDOF 16
ENDMDL
MODEL 5
REMARK VINA RESULT:      -6.5     29.464     34.878
REMARK  Name = 5281224_Astaxanthin.pdbqt.pdb
REMARK  16 active torsions:
REMARK  status: ('A' for Active; 'I' for Inactive)
REMARK    1  A    between atoms: C_1  and  C_5
REMARK    2  A    between atoms: C_2  and  C_27
REMARK    3  A    between atoms: C_3  and  C_5
REMARK    4  A    between atoms: C_3  and  C_7
REMARK    5  A    between atoms: C_6  and  C_10
REMARK    6  A    between atoms: C_8  and  C_10
REMARK    7  A    between atoms: C_8  and  C_12
REMARK    8  A    between atoms: C_11  and  C_16
REMARK    9  A    between atoms: C_17  and  O_23
REMARK   10  A    between atoms: C_25  and  C_27
REMARK   11  A    between atoms: C_25  and  C_29
REMARK   12  A    between atoms: C_28  and  C_32
REMARK   13  A    between atoms: C_30  and  C_32
REMARK   14  A    between atoms: C_30  and  C_34
REMARK   15  A    between atoms: C_33  and  C_38
REMARK   16  A    between atoms: C_39  and  O_45
REMARK                            x       y       z     vdW  Elec       q    Type
REMARK                         _______ _______ _______ _____ _____    ______ ____
ROOT
ATOM      1  C   UNL     1     -51.518 -47.891 -63.977  0.00  0.00    +0.000 C 
ATOM      2  C   UNL     1     -51.916 -46.851 -63.531  0.00  0.00    +0.000 C 
ENDROOT
BRANCH   2   3
ATOM      3  C   UNL     1     -52.429 -45.520 -62.967  0.00  0.00    +0.000 C 
BRANCH   3   4
ATOM      4  C   UNL     1     -52.857 -44.395 -62.487  0.00  0.00    +0.000 C 
ATOM      5  C   UNL     1     -51.923 -43.504 -61.725  0.00  0.00    +0.000 C 
BRANCH   4   7
ATOM      6  C   UNL     1     -55.381 -43.750 -62.725  0.00  0.00    +0.000 C 
ATOM      7  C   UNL     1     -54.223 -44.045 -62.614  0.00  0.00    +0.000 C 
BRANCH   6   8
ATOM      8  C   UNL     1     -56.861 -43.376 -62.870  0.00  0.00    +0.000 C 
BRANCH   8   9
ATOM      9  C   UNL     1     -58.111 -43.051 -62.996  0.00  0.00    +0.000 C 
ATOM     10  C   UNL     1     -58.613 -42.503 -64.297  0.00  0.00    +0.000 C 
BRANCH   9  12
ATOM     11  C   UNL     1     -59.783 -43.628 -61.064  0.00  0.00    +0.000 C 
ATOM     12  C   UNL     1     -59.024 -43.357 -61.957  0.00  0.00    +0.000 C 
BRANCH  11  16
ATOM     13  O   UNL     1     -63.100 -46.612 -59.037  0.00  0.00    +0.000 OA
ATOM     14  C   UNL     1     -60.751 -42.991 -58.773  0.00  0.00    +0.000 C 
ATOM     15  C   UNL     1     -61.720 -43.577 -57.863  0.00  0.00    +0.000 C 
ATOM     16  C   UNL     1     -60.686 -43.963 -59.980  0.00  0.00    +0.000 C 
ATOM     17  C   UNL     1     -62.538 -44.701 -57.807  0.00  0.00    +0.000 C 
ATOM     18  C   UNL     1     -59.359 -42.925 -58.102  0.00  0.00    +0.000 C 
ATOM     19  C   UNL     1     -61.240 -41.607 -59.254  0.00  0.00    +0.000 C 
ATOM     20  C   UNL     1     -61.432 -45.104 -60.051  0.00  0.00    +0.000 C 
ATOM     21  C   UNL     1     -62.428 -45.591 -58.985  0.00  0.00    +0.000 C 
ATOM     22  C   UNL     1     -61.282 -46.007 -61.283  0.00  0.00    +0.000 C 
BRANCH  17  23
ATOM     23  O   UNL     1     -63.370 -44.968 -56.753  0.00  0.00    +0.000 OA
ATOM     24  H   UNL     1     -63.252 -45.889 -56.443  0.00  0.00    +0.000 HD
ENDBRANCH  17  23
ENDBRANCH  11  16
ENDBRANCH   9  12
ENDBRANCH   8   9
ENDBRANCH   6   8
ENDBRANCH   4   7
ENDBRANCH   3   4
ENDBRANCH   2   3
BRANCH   1  25
ATOM     25  C   UNL     1     -51.012 -49.217 -64.558  0.00  0.00    +0.000 C 
BRANCH  25  26
ATOM     26  C   UNL     1     -50.589 -50.339 -65.050  0.00  0.00    +0.000 C 
ATOM     27  C   UNL     1     -49.319 -50.373 -65.846  0.00  0.00    +0.000 C 
BRANCH  26  29
ATOM     28  C   UNL     1     -52.031 -52.505 -64.791  0.00  0.00    +0.000 C 
ATOM     29  C   UNL     1     -51.369 -51.511 -64.911  0.00  0.00    +0.000 C 
BRANCH  28  30
ATOM     30  C   UNL     1     -52.878 -53.775 -64.634  0.00  0.00    +0.000 C 
BRANCH  30  31
ATOM     31  C   UNL     1     -53.591 -54.849 -64.510  0.00  0.00    +0.000 C 
ATOM     32  C   UNL     1     -54.572 -54.970 -63.383  0.00  0.00    +0.000 C 
BRANCH  31  34
ATOM     33  C   UNL     1     -53.550 -56.677 -66.387  0.00  0.00    +0.000 C 
ATOM     34  C   UNL     1     -53.557 -55.837 -65.525  0.00  0.00    +0.000 C 
BRANCH  33  38
ATOM     35  O   UNL     1     -52.837 -61.304 -67.835  0.00  0.00    +0.000 OA
ATOM     36  C   UNL     1     -53.996 -57.262 -68.845  0.00  0.00    +0.000 C 
ATOM     37  C   UNL     1     -53.909 -58.468 -69.652  0.00  0.00    +0.000 C 
ATOM     38  C   UNL     1     -53.560 -57.693 -67.421  0.00  0.00    +0.000 C 
ATOM     39  C   UNL     1     -53.562 -59.805 -69.480  0.00  0.00    +0.000 C 
ATOM     40  C   UNL     1     -55.458 -56.758 -68.796  0.00  0.00    +0.000 C 
ATOM     41  C   UNL     1     -53.020 -56.192 -69.381  0.00  0.00    +0.000 C 
ATOM     42  C   UNL     1     -53.198 -58.973 -67.114  0.00  0.00    +0.000 C 
ATOM     43  C   UNL     1     -53.160 -60.153 -68.099  0.00  0.00    +0.000 C 
ATOM     44  C   UNL     1     -52.797 -59.299 -65.669  0.00  0.00    +0.000 C 
BRANCH  39  45
ATOM     45  O   UNL     1     -53.592 -60.721 -70.496  0.00  0.00    +0.000 OA
ATOM     46  H   UNL     1     -53.517 -60.277 -71.365  0.00  0.00    +0.000 HD
ENDBRANCH  39  45
ENDBRANCH  33  38
ENDBRANCH  31  34
ENDBRANCH  30  31
ENDBRANCH  28  30
ENDBRANCH  26  29
ENDBRANCH  25  26
ENDBRANCH   1  25
TORSDOF 16
ENDMDL
MODEL 6
REMARK VINA RESULT:      -6.5      1.344     19.927
REMARK  Name = 5281224_Astaxanthin.pdbqt.pdb
REMARK  16 active torsions:
REMARK  status: ('A' for Active; 'I' for Inactive)
REMARK    1  A    between atoms: C_1  and  C_5
REMARK    2  A    between atoms: C_2  and  C_27
REMARK    3  A    between atoms: C_3  and  C_5
REMARK    4  A    between atoms: C_3  and  C_7
REMARK    5  A    between atoms: C_6  and  C_10
REMARK    6  A    between atoms: C_8  and  C_10
REMARK    7  A    between atoms: C_8  and  C_12
REMARK    8  A    between atoms: C_11  and  C_16
REMARK    9  A    between atoms: C_17  and  O_23
REMARK   10  A    between atoms: C_25  and  C_27
REMARK   11  A    between atoms: C_25  and  C_29
REMARK   12  A    between atoms: C_28  and  C_32
REMARK   13  A    between atoms: C_30  and  C_32
REMARK   14  A    between atoms: C_30  and  C_34
REMARK   15  A    between atoms: C_33  and  C_38
REMARK   16  A    between atoms: C_39  and  O_45
REMARK                            x       y       z     vdW  Elec       q    Type
REMARK                         _______ _______ _______ _____ _____    ______ ____
ROOT
ATOM      1  C   UNL     1     -69.567 -56.516 -32.182  0.00  0.00    +0.000 C 
ATOM      2  C   UNL     1     -69.077 -56.994 -33.167  0.00  0.00    +0.000 C 
ENDROOT
BRANCH   2   3
ATOM      3  C   UNL     1     -68.458 -57.610 -34.428  0.00  0.00    +0.000 C 
BRANCH   3   4
ATOM      4  C   UNL     1     -67.936 -58.125 -35.497  0.00  0.00    +0.000 C 
ATOM      5  C   UNL     1     -67.285 -59.473 -35.436  0.00  0.00    +0.000 C 
BRANCH   4   7
ATOM      6  C   UNL     1     -67.884 -56.749 -37.722  0.00  0.00    +0.000 C 
ATOM      7  C   UNL     1     -67.910 -57.381 -36.701  0.00  0.00    +0.000 C 
BRANCH   6   8
ATOM      8  C   UNL     1     -67.848 -55.943 -39.025  0.00  0.00    +0.000 C 
BRANCH   8   9
ATOM      9  C   UNL     1     -67.825 -55.259 -40.127  0.00  0.00    +0.000 C 
ATOM     10  C   UNL     1     -68.238 -53.818 -40.120  0.00  0.00    +0.000 C 
BRANCH   9  12
ATOM     11  C   UNL     1     -66.807 -56.302 -42.303  0.00  0.00    +0.000 C 
ATOM     12  C   UNL     1     -67.267 -55.829 -41.297  0.00  0.00    +0.000 C 
BRANCH  11  16
ATOM     13  O   UNL     1     -66.979 -56.919 -47.163  0.00  0.00    +0.000 OA
ATOM     14  C   UNL     1     -64.984 -57.729 -43.412  0.00  0.00    +0.000 C 
ATOM     15  C   UNL     1     -64.682 -58.145 -44.771  0.00  0.00    +0.000 C 
ATOM     16  C   UNL     1     -66.266 -56.863 -43.526  0.00  0.00    +0.000 C 
ATOM     17  C   UNL     1     -65.213 -57.976 -46.046  0.00  0.00    +0.000 C 
ATOM     18  C   UNL     1     -63.834 -56.858 -42.853  0.00  0.00    +0.000 C 
ATOM     19  C   UNL     1     -65.273 -58.962 -42.528  0.00  0.00    +0.000 C 
ATOM     20  C   UNL     1     -66.886 -56.614 -44.717  0.00  0.00    +0.000 C 
ATOM     21  C   UNL     1     -66.432 -57.138 -46.089  0.00  0.00    +0.000 C 
ATOM     22  C   UNL     1     -68.141 -55.731 -44.722  0.00  0.00    +0.000 C 
BRANCH  17  23
ATOM     23  O   UNL     1     -64.655 -58.529 -47.167  0.00  0.00    +0.000 OA
ATOM     24  H   UNL     1     -65.134 -58.241 -47.971  0.00  0.00    +0.000 HD
ENDBRANCH  17  23
ENDBRANCH  11  16
ENDBRANCH   9  12
ENDBRANCH   8   9
ENDBRANCH   6   8
ENDBRANCH   4   7
ENDBRANCH   3   4
ENDBRANCH   2   3
BRANCH   1  25
ATOM     25  C   UNL     1     -70.202 -55.912 -30.923  0.00  0.00    +0.000 C 
BRANCH  25  26
ATOM     26  C   UNL     1     -70.733 -55.400 -29.858  0.00  0.00    +0.000 C 
ATOM     27  C   UNL     1     -70.893 -53.914 -29.744  0.00  0.00    +0.000 C 
BRANCH  26  29
ATOM     28  C   UNL     1     -71.378 -56.943 -27.847  0.00  0.00    +0.000 C 
ATOM     29  C   UNL     1     -71.080 -56.234 -28.770  0.00  0.00    +0.000 C 
BRANCH  28  30
ATOM     30  C   UNL     1     -71.762 -57.848 -26.669  0.00  0.00    +0.000 C 
BRANCH  30  31
ATOM     31  C   UNL     1     -72.083 -58.619 -25.679  0.00  0.00    +0.000 C 
ATOM     32  C   UNL     1     -71.374 -59.926 -25.489  0.00  0.00    +0.000 C 
BRANCH  31  34
ATOM     33  C   UNL     1     -73.757 -57.783 -23.845  0.00  0.00    +0.000 C 
ATOM     34  C   UNL     1     -72.987 -58.156 -24.690  0.00  0.00    +0.000 C 
BRANCH  33  38
ATOM     35  O   UNL     1     -77.794 -58.517 -21.164  0.00  0.00    +0.000 OA
ATOM     36  C   UNL     1     -74.413 -55.997 -22.123  0.00  0.00    +0.000 C 
ATOM     37  C   UNL     1     -75.494 -55.833 -21.165  0.00  0.00    +0.000 C 
ATOM     38  C   UNL     1     -74.691 -57.352 -22.823  0.00  0.00    +0.000 C 
ATOM     39  C   UNL     1     -76.624 -56.532 -20.752  0.00  0.00    +0.000 C 
ATOM     40  C   UNL     1     -73.055 -56.076 -21.387  0.00  0.00    +0.000 C 
ATOM     41  C   UNL     1     -74.451 -54.860 -23.169  0.00  0.00    +0.000 C 
ATOM     42  C   UNL     1     -75.761 -58.140 -22.510  0.00  0.00    +0.000 C 
ATOM     43  C   UNL     1     -76.831 -57.818 -21.454  0.00  0.00    +0.000 C 
ATOM     44  C   UNL     1     -75.937 -59.472 -23.252  0.00  0.00    +0.000 C 
BRANCH  39  45
ATOM     45  O   UNL     1     -77.470 -56.075 -19.778  0.00  0.00    +0.000 OA
ATOM     46  H   UNL     1     -77.221 -55.170 -19.500  0.00  0.00    +0.000 HD
ENDBRANCH  39  45
ENDBRANCH  33  38
ENDBRANCH  31  34
ENDBRANCH  30  31
ENDBRANCH  28  30
ENDBRANCH  26  29
ENDBRANCH  25  26
ENDBRANCH   1  25
TORSDOF 16
ENDMDL
MODEL 7
REMARK VINA RESULT:      -6.3     39.064     44.837
REMARK  Name = 5281224_Astaxanthin.pdbqt.pdb
REMARK  16 active torsions:
REMARK  status: ('A' for Active; 'I' for Inactive)
REMARK    1  A    between atoms: C_1  and  C_5
REMARK    2  A    between atoms: C_2  and  C_27
REMARK    3  A    between atoms: C_3  and  C_5
REMARK    4  A    between atoms: C_3  and  C_7
REMARK    5  A    between atoms: C_6  and  C_10
REMARK    6  A    between atoms: C_8  and  C_10
REMARK    7  A    between atoms: C_8  and  C_12
REMARK    8  A    between atoms: C_11  and  C_16
REMARK    9  A    between atoms: C_17  and  O_23
REMARK   10  A    between atoms: C_25  and  C_27
REMARK   11  A    between atoms: C_25  and  C_29
REMARK   12  A    between atoms: C_28  and  C_32
REMARK   13  A    between atoms: C_30  and  C_32
REMARK   14  A    between atoms: C_30  and  C_34
REMARK   15  A    between atoms: C_33  and  C_38
REMARK   16  A    between atoms: C_39  and  O_45
REMARK                            x       y       z     vdW  Elec       q    Type
REMARK                         _______ _______ _______ _____ _____    ______ ____
ROOT
ATOM      1  C   UNL     1     -59.105 -65.115 -71.890  0.00  0.00    +0.000 C 
ATOM      2  C   UNL     1     -60.161 -64.755 -71.450  0.00  0.00    +0.000 C 
ENDROOT
BRANCH   2   3
ATOM      3  C   UNL     1     -61.512 -64.301 -70.880  0.00  0.00    +0.000 C 
BRANCH   3   4
ATOM      4  C   UNL     1     -62.653 -63.914 -70.404  0.00  0.00    +0.000 C 
ATOM      5  C   UNL     1     -63.111 -64.408 -69.065  0.00  0.00    +0.000 C 
BRANCH   4   7
ATOM      6  C   UNL     1     -64.218 -62.387 -71.840  0.00  0.00    +0.000 C 
ATOM      7  C   UNL     1     -63.501 -63.089 -71.182  0.00  0.00    +0.000 C 
BRANCH   6   8
ATOM      8  C   UNL     1     -65.132 -61.487 -72.680  0.00  0.00    +0.000 C 
BRANCH   8   9
ATOM      9  C   UNL     1     -65.912 -60.727 -73.385  0.00  0.00    +0.000 C 
ATOM     10  C   UNL     1     -66.983 -59.925 -72.711  0.00  0.00    +0.000 C 
BRANCH   9  12
ATOM     11  C   UNL     1     -65.446 -60.366 -75.937  0.00  0.00    +0.000 C 
ATOM     12  C   UNL     1     -65.651 -60.540 -74.765  0.00  0.00    +0.000 C 
BRANCH  11  16
ATOM     13  O   UNL     1     -66.624 -58.203 -80.175  0.00  0.00    +0.000 OA
ATOM     14  C   UNL     1     -64.025 -60.896 -78.009  0.00  0.00    +0.000 C 
ATOM     15  C   UNL     1     -64.038 -60.485 -79.402  0.00  0.00    +0.000 C 
ATOM     16  C   UNL     1     -65.212 -60.146 -77.351  0.00  0.00    +0.000 C 
ATOM     17  C   UNL     1     -64.788 -59.654 -80.228  0.00  0.00    +0.000 C 
ATOM     18  C   UNL     1     -62.708 -60.450 -77.332  0.00  0.00    +0.000 C 
ATOM     19  C   UNL     1     -64.257 -62.420 -77.900  0.00  0.00    +0.000 C 
ATOM     20  C   UNL     1     -66.025 -59.296 -78.046  0.00  0.00    +0.000 C 
ATOM     21  C   UNL     1     -65.903 -58.963 -79.542  0.00  0.00    +0.000 C 
ATOM     22  C   UNL     1     -67.164 -58.590 -77.297  0.00  0.00    +0.000 C 
BRANCH  17  23
ATOM     23  O   UNL     1     -64.518 -59.482 -81.559  0.00  0.00    +0.000 OA
ATOM     24  H   UNL     1     -64.244 -60.327 -81.970  0.00  0.00    +0.000 HD
ENDBRANCH  17  23
ENDBRANCH  11  16
ENDBRANCH   9  12
ENDBRANCH   8   9
ENDBRANCH   6   8
ENDBRANCH   4   7
ENDBRANCH   3   4
ENDBRANCH   2   3
BRANCH   1  25
ATOM     25  C   UNL     1     -57.755 -65.582 -72.447  0.00  0.00    +0.000 C 
BRANCH  25  26
ATOM     26  C   UNL     1     -56.612 -65.978 -72.912  0.00  0.00    +0.000 C 
ATOM     27  C   UNL     1     -56.451 -67.389 -73.396  0.00  0.00    +0.000 C 
BRANCH  26  29
ATOM     28  C   UNL     1     -54.548 -64.372 -72.861  0.00  0.00    +0.000 C 
ATOM     29  C   UNL     1     -55.496 -65.109 -72.883  0.00  0.00    +0.000 C 
BRANCH  28  30
ATOM     30  C   UNL     1     -53.336 -63.432 -72.836  0.00  0.00    +0.000 C 
BRANCH  30  31
ATOM     31  C   UNL     1     -52.311 -62.640 -72.823  0.00  0.00    +0.000 C 
ATOM     32  C   UNL     1     -51.887 -61.986 -71.543  0.00  0.00    +0.000 C 
BRANCH  31  34
ATOM     33  C   UNL     1     -50.817 -62.437 -74.966  0.00  0.00    +0.000 C 
ATOM     34  C   UNL     1     -51.502 -62.519 -73.980  0.00  0.00    +0.000 C 
BRANCH  33  38
ATOM     35  O   UNL     1     -47.720 -64.493 -78.160  0.00  0.00    +0.000 OA
ATOM     36  C   UNL     1     -49.970 -61.013 -76.925  0.00  0.00    +0.000 C 
ATOM     37  C   UNL     1     -49.075 -61.230 -78.050  0.00  0.00    +0.000 C 
ATOM     38  C   UNL     1     -49.992 -62.358 -76.156  0.00  0.00    +0.000 C 
ATOM     39  C   UNL     1     -48.297 -62.262 -78.567  0.00  0.00    +0.000 C 
ATOM     40  C   UNL     1     -51.397 -60.696 -77.433  0.00  0.00    +0.000 C 
ATOM     41  C   UNL     1     -49.411 -59.904 -76.007  0.00  0.00    +0.000 C 
ATOM     42  C   UNL     1     -49.279 -63.451 -76.556  0.00  0.00    +0.000 C 
ATOM     43  C   UNL     1     -48.364 -63.519 -77.791  0.00  0.00    +0.000 C 
ATOM     44  C   UNL     1     -49.382 -64.742 -75.732  0.00  0.00    +0.000 C 
BRANCH  39  45
ATOM     45  O   UNL     1     -47.538 -62.129 -79.698  0.00  0.00    +0.000 OA
ATOM     46  H   UNL     1     -48.018 -62.471 -80.480  0.00  0.00    +0.000 HD
ENDBRANCH  39  45
ENDBRANCH  33  38
ENDBRANCH  31  34
ENDBRANCH  30  31
ENDBRANCH  28  30
ENDBRANCH  26  29
ENDBRANCH  25  26
ENDBRANCH   1  25
TORSDOF 16
ENDMDL
MODEL 8
REMARK VINA RESULT:      -6.3      8.070     19.000
REMARK  Name = 5281224_Astaxanthin.pdbqt.pdb
REMARK  16 active torsions:
REMARK  status: ('A' for Active; 'I' for Inactive)
REMARK    1  A    between atoms: C_1  and  C_5
REMARK    2  A    between atoms: C_2  and  C_27
REMARK    3  A    between atoms: C_3  and  C_5
REMARK    4  A    between atoms: C_3  and  C_7
REMARK    5  A    between atoms: C_6  and  C_10
REMARK    6  A    between atoms: C_8  and  C_10
REMARK    7  A    between atoms: C_8  and  C_12
REMARK    8  A    between atoms: C_11  and  C_16
REMARK    9  A    between atoms: C_17  and  O_23
REMARK   10  A    between atoms: C_25  and  C_27
REMARK   11  A    between atoms: C_25  and  C_29
REMARK   12  A    between atoms: C_28  and  C_32
REMARK   13  A    between atoms: C_30  and  C_32
REMARK   14  A    between atoms: C_30  and  C_34
REMARK   15  A    between atoms: C_33  and  C_38
REMARK   16  A    between atoms: C_39  and  O_45
REMARK                            x       y       z     vdW  Elec       q    Type
REMARK                         _______ _______ _______ _____ _____    ______ ____
ROOT
ATOM      1  C   UNL     1     -71.331 -54.226 -29.569  0.00  0.00    +0.000 C 
ATOM      2  C   UNL     1     -71.270 -53.061 -29.849  0.00  0.00    +0.000 C 
ENDROOT
BRANCH   2   3
ATOM      3  C   UNL     1     -71.191 -51.569 -30.197  0.00  0.00    +0.000 C 
BRANCH   3   4
ATOM      4  C   UNL     1     -71.118 -50.309 -30.490  0.00  0.00    +0.000 C 
ATOM      5  C   UNL     1     -72.360 -49.553 -30.854  0.00  0.00    +0.000 C 
BRANCH   4   7
ATOM      6  C   UNL     1     -68.788 -49.123 -30.594  0.00  0.00    +0.000 C 
ATOM      7  C   UNL     1     -69.858 -49.667 -30.544  0.00  0.00    +0.000 C 
BRANCH   6   8
ATOM      8  C   UNL     1     -67.423 -48.428 -30.661  0.00  0.00    +0.000 C 
BRANCH   8   9
ATOM      9  C   UNL     1     -66.271 -47.835 -30.723  0.00  0.00    +0.000 C 
ATOM     10  C   UNL     1     -65.399 -47.767 -29.507  0.00  0.00    +0.000 C 
BRANCH   9  12
ATOM     11  C   UNL     1     -65.352 -46.991 -33.026  0.00  0.00    +0.000 C 
ATOM     12  C   UNL     1     -65.777 -47.389 -31.974  0.00  0.00    +0.000 C 
BRANCH  11  16
ATOM     13  O   UNL     1     -64.880 -47.364 -37.891  0.00  0.00    +0.000 OA
ATOM     14  C   UNL     1     -63.989 -45.197 -34.257  0.00  0.00    +0.000 C 
ATOM     15  C   UNL     1     -63.619 -44.948 -35.639  0.00  0.00    +0.000 C 
ATOM     16  C   UNL     1     -64.837 -46.495 -34.288  0.00  0.00    +0.000 C 
ATOM     17  C   UNL     1     -63.819 -45.536 -36.884  0.00  0.00    +0.000 C 
ATOM     18  C   UNL     1     -64.860 -44.037 -33.720  0.00  0.00    +0.000 C 
ATOM     19  C   UNL     1     -62.725 -45.429 -33.400  0.00  0.00    +0.000 C 
ATOM     20  C   UNL     1     -65.112 -47.169 -35.443  0.00  0.00    +0.000 C 
ATOM     21  C   UNL     1     -64.638 -46.768 -36.849  0.00  0.00    +0.000 C 
ATOM     22  C   UNL     1     -65.975 -48.437 -35.367  0.00  0.00    +0.000 C 
BRANCH  17  23
ATOM     23  O   UNL     1     -63.309 -45.019 -38.045  0.00  0.00    +0.000 OA
ATOM     24  H   UNL     1     -63.367 -45.674 -38.771  0.00  0.00    +0.000 HD
ENDBRANCH  17  23
ENDBRANCH  11  16
ENDBRANCH   9  12
ENDBRANCH   8   9
ENDBRANCH   6   8
ENDBRANCH   4   7
ENDBRANCH   3   4
ENDBRANCH   2   3
BRANCH   1  25
ATOM     25  C   UNL     1     -71.410 -55.713 -29.203  0.00  0.00    +0.000 C 
BRANCH  25  26
ATOM     26  C   UNL     1     -71.473 -56.969 -28.889  0.00  0.00    +0.000 C 
ATOM     27  C   UNL     1     -71.354 -58.012 -29.959  0.00  0.00    +0.000 C 
BRANCH  26  29
ATOM     28  C   UNL     1     -71.966 -57.680 -26.421  0.00  0.00    +0.000 C 
ATOM     29  C   UNL     1     -71.741 -57.352 -27.554  0.00  0.00    +0.000 C 
BRANCH  28  30
ATOM     30  C   UNL     1     -72.254 -58.102 -24.974  0.00  0.00    +0.000 C 
BRANCH  30  31
ATOM     31  C   UNL     1     -72.497 -58.467 -23.755  0.00  0.00    +0.000 C 
ATOM     32  C   UNL     1     -71.862 -59.709 -23.205  0.00  0.00    +0.000 C 
BRANCH  31  34
ATOM     33  C   UNL     1     -73.864 -56.874 -22.187  0.00  0.00    +0.000 C 
ATOM     34  C   UNL     1     -73.231 -57.610 -22.897  0.00  0.00    +0.000 C 
BRANCH  33  38
ATOM     35  O   UNL     1     -74.111 -53.562 -18.583  0.00  0.00    +0.000 OA
ATOM     36  C   UNL     1     -76.164 -55.910 -21.579  0.00  0.00    +0.000 C 
ATOM     37  C   UNL     1     -76.656 -54.945 -20.610  0.00  0.00    +0.000 C 
ATOM     38  C   UNL     1     -74.632 -55.976 -21.346  0.00  0.00    +0.000 C 
ATOM     39  C   UNL     1     -76.138 -54.132 -19.606  0.00  0.00    +0.000 C 
ATOM     40  C   UNL     1     -76.435 -55.407 -23.017  0.00  0.00    +0.000 C 
ATOM     41  C   UNL     1     -76.786 -57.298 -21.312  0.00  0.00    +0.000 C 
ATOM     42  C   UNL     1     -73.995 -55.229 -20.398  0.00  0.00    +0.000 C 
ATOM     43  C   UNL     1     -74.672 -54.238 -19.436  0.00  0.00    +0.000 C 
ATOM     44  C   UNL     1     -72.472 -55.358 -20.258  0.00  0.00    +0.000 C 
BRANCH  39  45
ATOM     45  O   UNL     1     -76.914 -53.301 -18.844  0.00  0.00    +0.000 OA
ATOM     46  H   UNL     1     -77.791 -53.703 -18.678  0.00  0.00    +0.000 HD
ENDBRANCH  39  45
ENDBRANCH  33  38
ENDBRANCH  31  34
ENDBRANCH  30  31
ENDBRANCH  28  30
ENDBRANCH  26  29
ENDBRANCH  25  26
ENDBRANCH   1  25
TORSDOF 16
ENDMDL
MODEL 9
REMARK VINA RESULT:      -6.3     10.102     18.063
REMARK  Name = 5281224_Astaxanthin.pdbqt.pdb
REMARK  16 active torsions:
REMARK  status: ('A' for Active; 'I' for Inactive)
REMARK    1  A    between atoms: C_1  and  C_5
REMARK    2  A    between atoms: C_2  and  C_27
REMARK    3  A    between atoms: C_3  and  C_5
REMARK    4  A    between atoms: C_3  and  C_7
REMARK    5  A    between atoms: C_6  and  C_10
REMARK    6  A    between atoms: C_8  and  C_10
REMARK    7  A    between atoms: C_8  and  C_12
REMARK    8  A    between atoms: C_11  and  C_16
REMARK    9  A    between atoms: C_17  and  O_23
REMARK   10  A    between atoms: C_25  and  C_27
REMARK   11  A    between atoms: C_25  and  C_29
REMARK   12  A    between atoms: C_28  and  C_32
REMARK   13  A    between atoms: C_30  and  C_32
REMARK   14  A    between atoms: C_30  and  C_34
REMARK   15  A    between atoms: C_33  and  C_38
REMARK   16  A    between atoms: C_39  and  O_45
REMARK                            x       y       z     vdW  Elec       q    Type
REMARK                         _______ _______ _______ _____ _____    ______ ____
ROOT
ATOM      1  C   UNL     1     -71.363 -54.383 -29.578  0.00  0.00    +0.000 C 
ATOM      2  C   UNL     1     -71.295 -53.222 -29.874  0.00  0.00    +0.000 C 
ENDROOT
BRANCH   2   3
ATOM      3  C   UNL     1     -71.213 -51.736 -30.245  0.00  0.00    +0.000 C 
BRANCH   3   4
ATOM      4  C   UNL     1     -71.141 -50.479 -30.553  0.00  0.00    +0.000 C 
ATOM      5  C   UNL     1     -72.397 -49.692 -30.777  0.00  0.00    +0.000 C 
BRANCH   4   7
ATOM      6  C   UNL     1     -68.807 -49.358 -30.925  0.00  0.00    +0.000 C 
ATOM      7  C   UNL     1     -69.879 -49.871 -30.756  0.00  0.00    +0.000 C 
BRANCH   6   8
ATOM      8  C   UNL     1     -67.436 -48.706 -31.140  0.00  0.00    +0.000 C 
BRANCH   8   9
ATOM      9  C   UNL     1     -66.279 -48.147 -31.316  0.00  0.00    +0.000 C 
ATOM     10  C   UNL     1     -65.946 -47.518 -32.635  0.00  0.00    +0.000 C 
BRANCH   9  12
ATOM     11  C   UNL     1     -64.644 -47.897 -29.285  0.00  0.00    +0.000 C 
ATOM     12  C   UNL     1     -65.395 -48.000 -30.219  0.00  0.00    +0.000 C 
BRANCH  11  16
ATOM     13  O   UNL     1     -62.177 -49.949 -25.580  0.00  0.00    +0.000 OA
ATOM     14  C   UNL     1     -63.176 -46.386 -27.818  0.00  0.00    +0.000 C 
ATOM     15  C   UNL     1     -62.317 -46.587 -26.664  0.00  0.00    +0.000 C 
ATOM     16  C   UNL     1     -63.740 -47.790 -28.156  0.00  0.00    +0.000 C 
ATOM     17  C   UNL     1     -61.907 -47.639 -25.851  0.00  0.00    +0.000 C 
ATOM     18  C   UNL     1     -62.346 -45.873 -29.018  0.00  0.00    +0.000 C 
ATOM     19  C   UNL     1     -64.340 -45.437 -27.458  0.00  0.00    +0.000 C 
ATOM     20  C   UNL     1     -63.416 -48.908 -27.442  0.00  0.00    +0.000 C 
ATOM     21  C   UNL     1     -62.476 -48.953 -26.226  0.00  0.00    +0.000 C 
ATOM     22  C   UNL     1     -64.018 -50.255 -27.869  0.00  0.00    +0.000 C 
BRANCH  17  23
ATOM     23  O   UNL     1     -61.047 -47.479 -24.798  0.00  0.00    +0.000 OA
ATOM     24  H   UNL     1     -61.174 -48.188 -24.135  0.00  0.00    +0.000 HD
ENDBRANCH  17  23
ENDBRANCH  11  16
ENDBRANCH   9  12
ENDBRANCH   8   9
ENDBRANCH   6   8
ENDBRANCH   4   7
ENDBRANCH   3   4
ENDBRANCH   2   3
BRANCH   1  25
ATOM     25  C   UNL     1     -71.455 -55.864 -29.192  0.00  0.00    +0.000 C 
BRANCH  25  26
ATOM     26  C   UNL     1     -71.530 -57.115 -28.861  0.00  0.00    +0.000 C 
ATOM     27  C   UNL     1     -71.436 -58.173 -29.919  0.00  0.00    +0.000 C 
BRANCH  26  29
ATOM     28  C   UNL     1     -72.005 -57.785 -26.378  0.00  0.00    +0.000 C 
ATOM     29  C   UNL     1     -71.786 -57.478 -27.518  0.00  0.00    +0.000 C 
BRANCH  28  30
ATOM     30  C   UNL     1     -72.289 -58.175 -24.922  0.00  0.00    +0.000 C 
BRANCH  30  31
ATOM     31  C   UNL     1     -72.520 -58.501 -23.689  0.00  0.00    +0.000 C 
ATOM     32  C   UNL     1     -71.865 -59.713 -23.100  0.00  0.00    +0.000 C 
BRANCH  31  34
ATOM     33  C   UNL     1     -73.898 -56.899 -22.140  0.00  0.00    +0.000 C 
ATOM     34  C   UNL     1     -73.264 -57.626 -22.859  0.00  0.00    +0.000 C 
BRANCH  33  38
ATOM     35  O   UNL     1     -74.134 -53.610 -18.514  0.00  0.00    +0.000 OA
ATOM     36  C   UNL     1     -76.209 -56.040 -21.428  0.00  0.00    +0.000 C 
ATOM     37  C   UNL     1     -76.701 -55.100 -20.434  0.00  0.00    +0.000 C 
ATOM     38  C   UNL     1     -74.668 -56.039 -21.262  0.00  0.00    +0.000 C 
ATOM     39  C   UNL     1     -76.176 -54.267 -19.450  0.00  0.00    +0.000 C 
ATOM     40  C   UNL     1     -76.566 -55.546 -22.850  0.00  0.00    +0.000 C 
ATOM     41  C   UNL     1     -76.757 -57.455 -21.140  0.00  0.00    +0.000 C 
ATOM     42  C   UNL     1     -74.023 -55.266 -20.339  0.00  0.00    +0.000 C 
ATOM     43  C   UNL     1     -74.701 -54.308 -19.345  0.00  0.00    +0.000 C 
ATOM     44  C   UNL     1     -72.492 -55.327 -20.267  0.00  0.00    +0.000 C 
BRANCH  39  45
ATOM     45  O   UNL     1     -76.954 -53.474 -18.652  0.00  0.00    +0.000 OA
ATOM     46  H   UNL     1     -76.934 -52.544 -18.961  0.00  0.00    +0.000 HD
ENDBRANCH  39  45
ENDBRANCH  33  38
ENDBRANCH  31  34
ENDBRANCH  30  31
ENDBRANCH  28  30
ENDBRANCH  26  29
ENDBRANCH  25  26
ENDBRANCH   1  25
TORSDOF 16
ENDMDL
