MODEL 1
REMARK VINA RESULT:      -5.2      0.000      0.000
REMARK  Name = 5281416_Esculetin.pdbqt.pdb
REMARK  2 active torsions:
REMARK  status: ('A' for Active; 'I' for Inactive)
REMARK    1  A    between atoms: C_7  and  O_12
REMARK    2  A    between atoms: C_8  and  O_14
REMARK                            x       y       z     vdW  Elec       q    Type
REMARK                         _______ _______ _______ _____ _____    ______ ____
ROOT
ATOM      1  O   UNL     1     -65.359 -46.697 -57.736  0.00  0.00    +0.000 OA
ATOM      2  O   UNL     1     -67.663 -47.134 -57.814  0.00  0.00    +0.000 OA
ATOM      3  C   UNL     1     -64.071 -47.186 -59.815  0.00  0.00    +0.000 A 
ATOM      4  C   UNL     1     -64.112 -46.728 -58.469  0.00  0.00    +0.000 A 
ATOM      5  C   UNL     1     -62.880 -47.219 -60.522  0.00  0.00    +0.000 A 
ATOM      6  C   UNL     1     -62.966 -46.298 -57.816  0.00  0.00    +0.000 A 
ATOM      7  C   UNL     1     -61.732 -46.787 -59.864  0.00  0.00    +0.000 A 
ATOM      8  C   UNL     1     -61.776 -46.335 -58.536  0.00  0.00    +0.000 A 
ATOM      9  C   UNL     1     -65.330 -47.588 -60.327  0.00  0.00    +0.000 A 
ATOM     10  C   UNL     1     -66.348 -47.554 -59.705  0.00  0.00    +0.000 A 
ATOM     11  C   UNL     1     -66.568 -47.125 -58.351  0.00  0.00    +0.000 A 
ENDROOT
BRANCH   7  12
ATOM     12  O   UNL     1     -60.516 -46.788 -60.495  0.00  0.00    +0.000 OA
ATOM     13  H   UNL     1     -60.054 -47.612 -60.252  0.00  0.00    +0.000 HD
ENDBRANCH   7  12
BRANCH   8  14
ATOM     14  O   UNL     1     -60.623 -45.919 -57.928  0.00  0.00    +0.000 OA
ATOM     15  H   UNL     1     -59.949 -46.586 -58.170  0.00  0.00    +0.000 HD
ENDBRANCH   8  14
TORSDOF 2
ENDMDL
MODEL 2
REMARK VINA RESULT:      -4.7      1.232      4.515
REMARK  Name = 5281416_Esculetin.pdbqt.pdb
REMARK  2 active torsions:
REMARK  status: ('A' for Active; 'I' for Inactive)
REMARK    1  A    between atoms: C_7  and  O_12
REMARK    2  A    between atoms: C_8  and  O_14
REMARK                            x       y       z     vdW  Elec       q    Type
REMARK                         _______ _______ _______ _____ _____    ______ ____
ROOT
ATOM      1  O   UNL     1     -62.458 -45.684 -57.707  0.00  0.00    +0.000 OA
ATOM      2  O   UNL     1     -60.165 -45.191 -57.779  0.00  0.00    +0.000 OA
ATOM      3  C   UNL     1     -63.407 -46.821 -59.713  0.00  0.00    +0.000 A 
ATOM      4  C   UNL     1     -63.578 -46.266 -58.414  0.00  0.00    +0.000 A 
ATOM      5  C   UNL     1     -64.475 -47.379 -60.396  0.00  0.00    +0.000 A 
ATOM      6  C   UNL     1     -64.814 -46.262 -57.786  0.00  0.00    +0.000 A 
ATOM      7  C   UNL     1     -65.715 -47.374 -59.762  0.00  0.00    +0.000 A 
ATOM      8  C   UNL     1     -65.880 -46.825 -58.481  0.00  0.00    +0.000 A 
ATOM      9  C   UNL     1     -62.081 -46.742 -60.205  0.00  0.00    +0.000 A 
ATOM     10  C   UNL     1     -61.170 -46.258 -59.605  0.00  0.00    +0.000 A 
ATOM     11  C   UNL     1     -61.165 -45.658 -58.299  0.00  0.00    +0.000 A 
ENDROOT
BRANCH   7  12
ATOM     12  O   UNL     1     -66.820 -47.907 -60.372  0.00  0.00    +0.000 OA
ATOM     13  H   UNL     1     -67.020 -47.363 -61.157  0.00  0.00    +0.000 HD
ENDBRANCH   7  12
BRANCH   8  14
ATOM     14  O   UNL     1     -67.116 -46.841 -57.896  0.00  0.00    +0.000 OA
ATOM     15  H   UNL     1     -67.164 -46.016 -57.372  0.00  0.00    +0.000 HD
ENDBRANCH   8  14
TORSDOF 2
ENDMDL
MODEL 3
REMARK VINA RESULT:      -4.5     18.709     19.882
REMARK  Name = 5281416_Esculetin.pdbqt.pdb
REMARK  2 active torsions:
REMARK  status: ('A' for Active; 'I' for Inactive)
REMARK    1  A    between atoms: C_7  and  O_12
REMARK    2  A    between atoms: C_8  and  O_14
REMARK                            x       y       z     vdW  Elec       q    Type
REMARK                         _______ _______ _______ _____ _____    ______ ____
ROOT
ATOM      1  O   UNL     1     -67.452 -59.271 -74.054  0.00  0.00    +0.000 OA
ATOM      2  O   UNL     1     -68.113 -58.888 -76.272  0.00  0.00    +0.000 OA
ATOM      3  C   UNL     1     -65.512 -60.803 -73.728  0.00  0.00    +0.000 A 
ATOM      4  C   UNL     1     -66.521 -59.959 -73.186  0.00  0.00    +0.000 A 
ATOM      5  C   UNL     1     -64.617 -61.465 -72.903  0.00  0.00    +0.000 A 
ATOM      6  C   UNL     1     -66.647 -59.768 -71.818  0.00  0.00    +0.000 A 
ATOM      7  C   UNL     1     -64.746 -61.271 -71.530  0.00  0.00    +0.000 A 
ATOM      8  C   UNL     1     -65.743 -60.437 -71.000  0.00  0.00    +0.000 A 
ATOM      9  C   UNL     1     -65.526 -60.886 -75.142  0.00  0.00    +0.000 A 
ATOM     10  C   UNL     1     -66.304 -60.309 -75.840  0.00  0.00    +0.000 A 
ATOM     11  C   UNL     1     -67.374 -59.427 -75.465  0.00  0.00    +0.000 A 
ENDROOT
BRANCH   7  12
ATOM     12  O   UNL     1     -63.900 -61.891 -70.649  0.00  0.00    +0.000 OA
ATOM     13  H   UNL     1     -63.182 -62.303 -71.164  0.00  0.00    +0.000 HD
ENDBRANCH   7  12
BRANCH   8  14
ATOM     14  O   UNL     1     -65.833 -60.275 -69.645  0.00  0.00    +0.000 OA
ATOM     15  H   UNL     1     -66.792 -60.280 -69.447  0.00  0.00    +0.000 HD
ENDBRANCH   8  14
TORSDOF 2
ENDMDL
MODEL 4
REMARK VINA RESULT:      -4.4      1.323      2.586
REMARK  Name = 5281416_Esculetin.pdbqt.pdb
REMARK  2 active torsions:
REMARK  status: ('A' for Active; 'I' for Inactive)
REMARK    1  A    between atoms: C_7  and  O_12
REMARK    2  A    between atoms: C_8  and  O_14
REMARK                            x       y       z     vdW  Elec       q    Type
REMARK                         _______ _______ _______ _____ _____    ______ ____
ROOT
ATOM      1  O   UNL     1     -65.770 -46.761 -58.184  0.00  0.00    +0.000 OA
ATOM      2  O   UNL     1     -67.136 -46.656 -56.279  0.00  0.00    +0.000 OA
ATOM      3  C   UNL     1     -63.313 -46.584 -57.793  0.00  0.00    +0.000 A 
ATOM      4  C   UNL     1     -64.412 -46.732 -58.684  0.00  0.00    +0.000 A 
ATOM      5  C   UNL     1     -62.011 -46.555 -58.265  0.00  0.00    +0.000 A 
ATOM      6  C   UNL     1     -64.223 -46.852 -60.053  0.00  0.00    +0.000 A 
ATOM      7  C   UNL     1     -61.824 -46.676 -59.640  0.00  0.00    +0.000 A 
ATOM      8  C   UNL     1     -62.911 -46.822 -60.516  0.00  0.00    +0.000 A 
ATOM      9  C   UNL     1     -63.685 -46.475 -56.430  0.00  0.00    +0.000 A 
ATOM     10  C   UNL     1     -64.812 -46.501 -56.038  0.00  0.00    +0.000 A 
ATOM     11  C   UNL     1     -66.028 -46.642 -56.791  0.00  0.00    +0.000 A 
ENDROOT
BRANCH   7  12
ATOM     12  O   UNL     1     -60.567 -46.657 -60.184  0.00  0.00    +0.000 OA
ATOM     13  H   UNL     1     -60.371 -47.554 -60.514  0.00  0.00    +0.000 HD
ENDBRANCH   7  12
BRANCH   8  14
ATOM     14  O   UNL     1     -62.682 -46.937 -61.859  0.00  0.00    +0.000 OA
ATOM     15  H   UNL     1     -61.712 -47.031 -61.948  0.00  0.00    +0.000 HD
ENDBRANCH   8  14
TORSDOF 2
ENDMDL
MODEL 5
REMARK VINA RESULT:      -4.4      1.444      2.035
REMARK  Name = 5281416_Esculetin.pdbqt.pdb
REMARK  2 active torsions:
REMARK  status: ('A' for Active; 'I' for Inactive)
REMARK    1  A    between atoms: C_7  and  O_12
REMARK    2  A    between atoms: C_8  and  O_14
REMARK                            x       y       z     vdW  Elec       q    Type
REMARK                         _______ _______ _______ _____ _____    ______ ____
ROOT
ATOM      1  O   UNL     1     -65.408 -46.545 -58.757  0.00  0.00    +0.000 OA
ATOM      2  O   UNL     1     -66.888 -47.665 -60.192  0.00  0.00    +0.000 OA
ATOM      3  C   UNL     1     -62.996 -46.615 -59.384  0.00  0.00    +0.000 A 
ATOM      4  C   UNL     1     -64.028 -46.193 -58.501  0.00  0.00    +0.000 A 
ATOM      5  C   UNL     1     -61.672 -46.282 -59.146  0.00  0.00    +0.000 A 
ATOM      6  C   UNL     1     -63.751 -45.435 -57.373  0.00  0.00    +0.000 A 
ATOM      7  C   UNL     1     -61.397 -45.521 -58.012  0.00  0.00    +0.000 A 
ATOM      8  C   UNL     1     -62.419 -45.106 -57.144  0.00  0.00    +0.000 A 
ATOM      9  C   UNL     1     -63.453 -47.381 -60.485  0.00  0.00    +0.000 A 
ATOM     10  C   UNL     1     -64.598 -47.661 -60.677  0.00  0.00    +0.000 A 
ATOM     11  C   UNL     1     -65.756 -47.321 -59.897  0.00  0.00    +0.000 A 
ENDROOT
BRANCH   7  12
ATOM     12  O   UNL     1     -60.114 -45.150 -57.708  0.00  0.00    +0.000 OA
ATOM     13  H   UNL     1     -59.559 -45.324 -58.490  0.00  0.00    +0.000 HD
ENDBRANCH   7  12
BRANCH   8  14
ATOM     14  O   UNL     1     -62.103 -44.359 -56.042  0.00  0.00    +0.000 OA
ATOM     15  H   UNL     1     -62.345 -43.440 -56.276  0.00  0.00    +0.000 HD
ENDBRANCH   8  14
TORSDOF 2
ENDMDL
MODEL 6
REMARK VINA RESULT:      -4.4     18.892     20.182
REMARK  Name = 5281416_Esculetin.pdbqt.pdb
REMARK  2 active torsions:
REMARK  status: ('A' for Active; 'I' for Inactive)
REMARK    1  A    between atoms: C_7  and  O_12
REMARK    2  A    between atoms: C_8  and  O_14
REMARK                            x       y       z     vdW  Elec       q    Type
REMARK                         _______ _______ _______ _____ _____    ______ ____
ROOT
ATOM      1  O   UNL     1     -66.415 -59.860 -71.574  0.00  0.00    +0.000 OA
ATOM      2  O   UNL     1     -65.336 -60.634 -69.640  0.00  0.00    +0.000 OA
ATOM      3  C   UNL     1     -65.592 -60.778 -73.741  0.00  0.00    +0.000 A 
ATOM      4  C   UNL     1     -66.478 -59.934 -73.018  0.00  0.00    +0.000 A 
ATOM      5  C   UNL     1     -65.647 -60.854 -75.123  0.00  0.00    +0.000 A 
ATOM      6  C   UNL     1     -67.428 -59.157 -73.666  0.00  0.00    +0.000 A 
ATOM      7  C   UNL     1     -66.601 -60.073 -75.771  0.00  0.00    +0.000 A 
ATOM      8  C   UNL     1     -67.474 -59.241 -75.054  0.00  0.00    +0.000 A 
ATOM      9  C   UNL     1     -64.687 -61.501 -72.925  0.00  0.00    +0.000 A 
ATOM     10  C   UNL     1     -64.651 -61.425 -71.734  0.00  0.00    +0.000 A 
ATOM     11  C   UNL     1     -65.463 -60.632 -70.853  0.00  0.00    +0.000 A 
ENDROOT
BRANCH   7  12
ATOM     12  O   UNL     1     -66.718 -60.093 -77.136  0.00  0.00    +0.000 OA
ATOM     13  H   UNL     1     -65.856 -59.839 -77.514  0.00  0.00    +0.000 HD
ENDBRANCH   7  12
BRANCH   8  14
ATOM     14  O   UNL     1     -68.396 -58.491 -75.730  0.00  0.00    +0.000 OA
ATOM     15  H   UNL     1     -68.816 -57.925 -75.052  0.00  0.00    +0.000 HD
ENDBRANCH   8  14
TORSDOF 2
ENDMDL
MODEL 7
REMARK VINA RESULT:      -4.1     27.160     28.567
REMARK  Name = 5281416_Esculetin.pdbqt.pdb
REMARK  2 active torsions:
REMARK  status: ('A' for Active; 'I' for Inactive)
REMARK    1  A    between atoms: C_7  and  O_12
REMARK    2  A    between atoms: C_8  and  O_14
REMARK                            x       y       z     vdW  Elec       q    Type
REMARK                         _______ _______ _______ _____ _____    ______ ____
ROOT
ATOM      1  O   UNL     1     -68.414 -57.766 -34.931  0.00  0.00    +0.000 OA
ATOM      2  O   UNL     1     -66.602 -59.206 -35.321  0.00  0.00    +0.000 OA
ATOM      3  C   UNL     1     -68.929 -57.260 -32.544  0.00  0.00    +0.000 A 
ATOM      4  C   UNL     1     -69.213 -57.096 -33.928  0.00  0.00    +0.000 A 
ATOM      5  C   UNL     1     -69.690 -56.621 -31.579  0.00  0.00    +0.000 A 
ATOM      6  C   UNL     1     -70.258 -56.293 -34.362  0.00  0.00    +0.000 A 
ATOM      7  C   UNL     1     -70.738 -55.816 -32.018  0.00  0.00    +0.000 A 
ATOM      8  C   UNL     1     -71.015 -55.656 -33.384  0.00  0.00    +0.000 A 
ATOM      9  C   UNL     1     -67.829 -58.113 -32.277  0.00  0.00    +0.000 A 
ATOM     10  C   UNL     1     -67.183 -58.657 -33.120  0.00  0.00    +0.000 A 
ATOM     11  C   UNL     1     -67.329 -58.603 -34.548  0.00  0.00    +0.000 A 
ENDROOT
BRANCH   7  12
ATOM     12  O   UNL     1     -71.536 -55.151 -31.125  0.00  0.00    +0.000 OA
ATOM     13  H   UNL     1     -71.364 -55.518 -30.238  0.00  0.00    +0.000 HD
ENDBRANCH   7  12
BRANCH   8  14
ATOM     14  O   UNL     1     -72.054 -54.856 -33.771  0.00  0.00    +0.000 OA
ATOM     15  H   UNL     1     -72.533 -54.639 -32.946  0.00  0.00    +0.000 HD
ENDBRANCH   8  14
TORSDOF 2
ENDMDL
MODEL 8
REMARK VINA RESULT:      -4.1     27.040     28.260
REMARK  Name = 5281416_Esculetin.pdbqt.pdb
REMARK  2 active torsions:
REMARK  status: ('A' for Active; 'I' for Inactive)
REMARK    1  A    between atoms: C_7  and  O_12
REMARK    2  A    between atoms: C_8  and  O_14
REMARK                            x       y       z     vdW  Elec       q    Type
REMARK                         _______ _______ _______ _____ _____    ______ ____
ROOT
ATOM      1  O   UNL     1     -70.054 -56.590 -31.853  0.00  0.00    +0.000 OA
ATOM      2  O   UNL     1     -71.784 -55.020 -31.638  0.00  0.00    +0.000 OA
ATOM      3  C   UNL     1     -69.287 -57.078 -34.175  0.00  0.00    +0.000 A 
ATOM      4  C   UNL     1     -69.190 -57.298 -32.773  0.00  0.00    +0.000 A 
ATOM      5  C   UNL     1     -68.463 -57.752 -35.062  0.00  0.00    +0.000 A 
ATOM      6  C   UNL     1     -68.272 -58.192 -32.243  0.00  0.00    +0.000 A 
ATOM      7  C   UNL     1     -67.542 -58.649 -34.526  0.00  0.00    +0.000 A 
ATOM      8  C   UNL     1     -67.450 -58.863 -33.142  0.00  0.00    +0.000 A 
ATOM      9  C   UNL     1     -70.276 -56.134 -34.545  0.00  0.00    +0.000 A 
ATOM     10  C   UNL     1     -70.979 -55.560 -33.769  0.00  0.00    +0.000 A 
ATOM     11  C   UNL     1     -71.016 -55.661 -32.336  0.00  0.00    +0.000 A 
ENDROOT
BRANCH   7  12
ATOM     12  O   UNL     1     -66.692 -59.354 -35.337  0.00  0.00    +0.000 OA
ATOM     13  H   UNL     1     -67.022 -60.270 -35.391  0.00  0.00    +0.000 HD
ENDBRANCH   7  12
BRANCH   8  14
ATOM     14  O   UNL     1     -66.531 -59.754 -32.659  0.00  0.00    +0.000 OA
ATOM     15  H   UNL     1     -67.052 -60.527 -32.363  0.00  0.00    +0.000 HD
ENDBRANCH   8  14
TORSDOF 2
ENDMDL
MODEL 9
REMARK VINA RESULT:      -4.1     25.579     26.950
REMARK  Name = 5281416_Esculetin.pdbqt.pdb
REMARK  2 active torsions:
REMARK  status: ('A' for Active; 'I' for Inactive)
REMARK    1  A    between atoms: C_7  and  O_12
REMARK    2  A    between atoms: C_8  and  O_14
REMARK                            x       y       z     vdW  Elec       q    Type
REMARK                         _______ _______ _______ _____ _____    ______ ____
ROOT
ATOM      1  O   UNL     1     -70.345 -56.243 -36.013  0.00  0.00    +0.000 OA
ATOM      2  O   UNL     1     -70.527 -55.808 -38.312  0.00  0.00    +0.000 OA
ATOM      3  C   UNL     1     -68.228 -57.322 -35.257  0.00  0.00    +0.000 A 
ATOM      4  C   UNL     1     -69.511 -56.784 -34.962  0.00  0.00    +0.000 A 
ATOM      5  C   UNL     1     -67.424 -57.841 -34.255  0.00  0.00    +0.000 A 
ATOM      6  C   UNL     1     -70.005 -56.759 -33.665  0.00  0.00    +0.000 A 
ATOM      7  C   UNL     1     -67.923 -57.815 -32.955  0.00  0.00    +0.000 A 
ATOM      8  C   UNL     1     -69.189 -57.283 -32.668  0.00  0.00    +0.000 A 
ATOM      9  C   UNL     1     -67.881 -57.269 -36.629  0.00  0.00    +0.000 A 
ATOM     10  C   UNL     1     -68.584 -56.818 -37.482  0.00  0.00    +0.000 A 
ATOM     11  C   UNL     1     -69.895 -56.241 -37.362  0.00  0.00    +0.000 A 
ENDROOT
BRANCH   7  12
ATOM     12  O   UNL     1     -67.188 -58.309 -31.909  0.00  0.00    +0.000 OA
ATOM     13  H   UNL     1     -67.774 -58.877 -31.375  0.00  0.00    +0.000 HD
ENDBRANCH   7  12
BRANCH   8  14
ATOM     14  O   UNL     1     -69.639 -57.277 -31.376  0.00  0.00    +0.000 OA
ATOM     15  H   UNL     1     -70.518 -56.849 -31.411  0.00  0.00    +0.000 HD
ENDBRANCH   8  14
TORSDOF 2
ENDMDL
