MODEL 1
REMARK VINA RESULT:      -5.2      0.000      0.000
REMARK  Name = 5281698_sexangularetin.pdbqt.pdb
REMARK  6 active torsions:
REMARK  status: ('A' for Active; 'I' for Inactive)
REMARK    1  A    between atoms: C_5  and  C_12
REMARK    2  A    between atoms: C_6  and  O_20
REMARK    3  A    between atoms: C_8  and  O_22
REMARK    4  A    between atoms: C_9  and  O_24
REMARK    5  A    between atoms: C_10  and  O_26
REMARK    6  A    between atoms: C_17  and  O_18
REMARK                            x       y       z     vdW  Elec       q    Type
REMARK                         _______ _______ _______ _____ _____    ______ ____
ROOT
ATOM      1  O   UNL     1     -63.159 -46.318 -56.543  0.00  0.00    +0.000 OA
ATOM      2  O   UNL     1     -66.725 -47.191 -58.255  0.00  0.00    +0.000 OA
ATOM      3  C   UNL     1     -64.413 -46.859 -58.544  0.00  0.00    +0.000 A 
ATOM      4  C   UNL     1     -63.220 -46.543 -57.896  0.00  0.00    +0.000 A 
ATOM      5  C   UNL     1     -64.325 -46.346 -55.786  0.00  0.00    +0.000 A 
ATOM      6  C   UNL     1     -62.031 -46.469 -58.635  0.00  0.00    +0.000 A 
ATOM      7  C   UNL     1     -65.641 -46.915 -57.748  0.00  0.00    +0.000 A 
ATOM      8  C   UNL     1     -65.536 -46.632 -56.299  0.00  0.00    +0.000 A 
ATOM      9  C   UNL     1     -64.424 -47.125 -59.917  0.00  0.00    +0.000 A 
ATOM     10  C   UNL     1     -62.045 -46.775 -60.001  0.00  0.00    +0.000 A 
ATOM     11  C   UNL     1     -63.238 -47.091 -60.645  0.00  0.00    +0.000 A 
ENDROOT
BRANCH   5  12
ATOM     12  C   UNL     1     -64.089 -46.047 -54.359  0.00  0.00    +0.000 A 
ATOM     13  C   UNL     1     -64.148 -47.081 -53.416  0.00  0.00    +0.000 A 
ATOM     14  C   UNL     1     -63.739 -44.768 -53.916  0.00  0.00    +0.000 A 
ATOM     15  C   UNL     1     -63.889 -46.843 -52.068  0.00  0.00    +0.000 A 
ATOM     16  C   UNL     1     -63.479 -44.515 -52.571  0.00  0.00    +0.000 A 
ATOM     17  C   UNL     1     -63.557 -45.558 -51.656  0.00  0.00    +0.000 A 
BRANCH  17  18
ATOM     18  O   UNL     1     -63.297 -45.291 -50.343  0.00  0.00    +0.000 OA
ATOM     19  H   UNL     1     -64.144 -45.112 -49.897  0.00  0.00    +0.000 HD
ENDBRANCH  17  18
ENDBRANCH   5  12
BRANCH   6  20
ATOM     20  O   UNL     1     -60.830 -46.191 -58.029  0.00  0.00    +0.000 OA
ATOM     21  C   UNL     1     -60.555 -44.809 -58.057  0.00  0.00    +0.000 C 
ENDBRANCH   6  20
BRANCH   8  22
ATOM     22  O   UNL     1     -66.701 -46.704 -55.561  0.00  0.00    +0.000 OA
ATOM     23  H   UNL     1     -66.428 -46.607 -54.624  0.00  0.00    +0.000 HD
ENDBRANCH   8  22
BRANCH   9  24
ATOM     24  O   UNL     1     -65.559 -47.443 -60.611  0.00  0.00    +0.000 OA
ATOM     25  H   UNL     1     -65.340 -47.509 -61.568  0.00  0.00    +0.000 HD
ENDBRANCH   9  24
BRANCH  10  26
ATOM     26  O   UNL     1     -60.876 -46.783 -60.708  0.00  0.00    +0.000 OA
ATOM     27  H   UNL     1     -61.079 -46.618 -61.648  0.00  0.00    +0.000 HD
ENDBRANCH  10  26
TORSDOF 6
ENDMDL
MODEL 2
REMARK VINA RESULT:      -5.1     20.456     23.997
REMARK  Name = 5281698_sexangularetin.pdbqt.pdb
REMARK  6 active torsions:
REMARK  status: ('A' for Active; 'I' for Inactive)
REMARK    1  A    between atoms: C_5  and  C_12
REMARK    2  A    between atoms: C_6  and  O_20
REMARK    3  A    between atoms: C_8  and  O_22
REMARK    4  A    between atoms: C_9  and  O_24
REMARK    5  A    between atoms: C_10  and  O_26
REMARK    6  A    between atoms: C_17  and  O_18
REMARK                            x       y       z     vdW  Elec       q    Type
REMARK                         _______ _______ _______ _____ _____    ______ ____
ROOT
ATOM      1  O   UNL     1     -64.968 -61.245 -74.238  0.00  0.00    +0.000 OA
ATOM      2  O   UNL     1     -68.314 -58.964 -74.098  0.00  0.00    +0.000 OA
ATOM      3  C   UNL     1     -66.747 -60.266 -72.918  0.00  0.00    +0.000 A 
ATOM      4  C   UNL     1     -65.600 -61.049 -73.036  0.00  0.00    +0.000 A 
ATOM      5  C   UNL     1     -65.508 -60.700 -75.398  0.00  0.00    +0.000 A 
ATOM      6  C   UNL     1     -65.051 -61.646 -71.893  0.00  0.00    +0.000 A 
ATOM      7  C   UNL     1     -67.307 -59.668 -74.132  0.00  0.00    +0.000 A 
ATOM      8  C   UNL     1     -66.614 -59.932 -75.412  0.00  0.00    +0.000 A 
ATOM      9  C   UNL     1     -67.335 -60.056 -71.666  0.00  0.00    +0.000 A 
ATOM     10  C   UNL     1     -65.622 -61.397 -70.639  0.00  0.00    +0.000 A 
ATOM     11  C   UNL     1     -66.768 -60.614 -70.525  0.00  0.00    +0.000 A 
ENDROOT
BRANCH   5  12
ATOM     12  C   UNL     1     -64.728 -61.035 -76.607  0.00  0.00    +0.000 A 
ATOM     13  C   UNL     1     -63.605 -60.269 -76.942  0.00  0.00    +0.000 A 
ATOM     14  C   UNL     1     -65.032 -62.145 -77.402  0.00  0.00    +0.000 A 
ATOM     15  C   UNL     1     -62.822 -60.583 -78.050  0.00  0.00    +0.000 A 
ATOM     16  C   UNL     1     -64.258 -62.469 -78.515  0.00  0.00    +0.000 A 
ATOM     17  C   UNL     1     -63.157 -61.684 -78.830  0.00  0.00    +0.000 A 
BRANCH  17  18
ATOM     18  O   UNL     1     -62.411 -62.019 -79.922  0.00  0.00    +0.000 OA
ATOM     19  H   UNL     1     -62.165 -61.198 -80.384  0.00  0.00    +0.000 HD
ENDBRANCH  17  18
ENDBRANCH   5  12
BRANCH   6  20
ATOM     20  O   UNL     1     -63.904 -62.399 -71.962  0.00  0.00    +0.000 OA
ATOM     21  C   UNL     1     -64.203 -63.768 -72.097  0.00  0.00    +0.000 C 
ENDBRANCH   6  20
BRANCH   8  22
ATOM     22  O   UNL     1     -67.146 -59.348 -76.545  0.00  0.00    +0.000 OA
ATOM     23  H   UNL     1     -66.658 -59.740 -77.300  0.00  0.00    +0.000 HD
ENDBRANCH   8  22
BRANCH   9  24
ATOM     24  O   UNL     1     -68.458 -59.297 -71.482  0.00  0.00    +0.000 OA
ATOM     25  H   UNL     1     -68.502 -59.014 -70.541  0.00  0.00    +0.000 HD
ENDBRANCH   9  24
BRANCH  10  26
ATOM     26  O   UNL     1     -65.043 -61.911 -69.513  0.00  0.00    +0.000 OA
ATOM     27  H   UNL     1     -64.759 -62.825 -69.698  0.00  0.00    +0.000 HD
ENDBRANCH  10  26
TORSDOF 6
ENDMDL
MODEL 3
REMARK VINA RESULT:      -5.1     16.858     20.634
REMARK  Name = 5281698_sexangularetin.pdbqt.pdb
REMARK  6 active torsions:
REMARK  status: ('A' for Active; 'I' for Inactive)
REMARK    1  A    between atoms: C_5  and  C_12
REMARK    2  A    between atoms: C_6  and  O_20
REMARK    3  A    between atoms: C_8  and  O_22
REMARK    4  A    between atoms: C_9  and  O_24
REMARK    5  A    between atoms: C_10  and  O_26
REMARK    6  A    between atoms: C_17  and  O_18
REMARK                            x       y       z     vdW  Elec       q    Type
REMARK                         _______ _______ _______ _____ _____    ______ ____
ROOT
ATOM      1  O   UNL     1     -65.521 -47.751 -36.089  0.00  0.00    +0.000 OA
ATOM      2  O   UNL     1     -68.844 -46.746 -38.179  0.00  0.00    +0.000 OA
ATOM      3  C   UNL     1     -66.511 -47.062 -38.190  0.00  0.00    +0.000 A 
ATOM      4  C   UNL     1     -65.407 -47.407 -37.412  0.00  0.00    +0.000 A 
ATOM      5  C   UNL     1     -66.766 -47.706 -35.470  0.00  0.00    +0.000 A 
ATOM      6  C   UNL     1     -64.131 -47.425 -37.994  0.00  0.00    +0.000 A 
ATOM      7  C   UNL     1     -67.828 -47.037 -37.551  0.00  0.00    +0.000 A 
ATOM      8  C   UNL     1     -67.903 -47.382 -36.114  0.00  0.00    +0.000 A 
ATOM      9  C   UNL     1     -66.355 -46.760 -39.547  0.00  0.00    +0.000 A 
ATOM     10  C   UNL     1     -63.990 -47.161 -39.361  0.00  0.00    +0.000 A 
ATOM     11  C   UNL     1     -65.095 -46.817 -40.135  0.00  0.00    +0.000 A 
ENDROOT
BRANCH   5  12
ATOM     12  C   UNL     1     -66.709 -48.070 -34.039  0.00  0.00    +0.000 A 
ATOM     13  C   UNL     1     -67.195 -49.315 -33.621  0.00  0.00    +0.000 A 
ATOM     14  C   UNL     1     -66.120 -47.235 -33.084  0.00  0.00    +0.000 A 
ATOM     15  C   UNL     1     -67.118 -49.707 -32.287  0.00  0.00    +0.000 A 
ATOM     16  C   UNL     1     -66.038 -47.614 -31.746  0.00  0.00    +0.000 A 
ATOM     17  C   UNL     1     -66.539 -48.851 -31.358  0.00  0.00    +0.000 A 
BRANCH  17  18
ATOM     18  O   UNL     1     -66.448 -49.205 -30.044  0.00  0.00    +0.000 OA
ATOM     19  H   UNL     1     -67.287 -48.972 -29.608  0.00  0.00    +0.000 HD
ENDBRANCH  17  18
ENDBRANCH   5  12
BRANCH   6  20
ATOM     20  O   UNL     1     -63.022 -47.789 -37.270  0.00  0.00    +0.000 OA
ATOM     21  C   UNL     1     -62.412 -46.666 -36.678  0.00  0.00    +0.000 C 
ENDBRANCH   6  20
BRANCH   8  22
ATOM     22  O   UNL     1     -69.156 -47.368 -35.530  0.00  0.00    +0.000 OA
ATOM     23  H   UNL     1     -69.794 -47.314 -36.272  0.00  0.00    +0.000 HD
ENDBRANCH   8  22
BRANCH   9  24
ATOM     24  O   UNL     1     -67.397 -46.418 -40.364  0.00  0.00    +0.000 OA
ATOM     25  H   UNL     1     -67.981 -45.785 -39.888  0.00  0.00    +0.000 HD
ENDBRANCH   9  24
BRANCH  10  26
ATOM     26  O   UNL     1     -62.761 -47.257 -39.949  0.00  0.00    +0.000 OA
ATOM     27  H   UNL     1     -62.527 -46.388 -40.327  0.00  0.00    +0.000 HD
ENDBRANCH  10  26
TORSDOF 6
ENDMDL
MODEL 4
REMARK VINA RESULT:      -5.1     28.162     32.150
REMARK  Name = 5281698_sexangularetin.pdbqt.pdb
REMARK  6 active torsions:
REMARK  status: ('A' for Active; 'I' for Inactive)
REMARK    1  A    between atoms: C_5  and  C_12
REMARK    2  A    between atoms: C_6  and  O_20
REMARK    3  A    between atoms: C_8  and  O_22
REMARK    4  A    between atoms: C_9  and  O_24
REMARK    5  A    between atoms: C_10  and  O_26
REMARK    6  A    between atoms: C_17  and  O_18
REMARK                            x       y       z     vdW  Elec       q    Type
REMARK                         _______ _______ _______ _____ _____    ______ ____
ROOT
ATOM      1  O   UNL     1     -71.668 -57.222 -27.644  0.00  0.00    +0.000 OA
ATOM      2  O   UNL     1     -72.735 -60.633 -29.552  0.00  0.00    +0.000 OA
ATOM      3  C   UNL     1     -71.697 -58.524 -29.686  0.00  0.00    +0.000 A 
ATOM      4  C   UNL     1     -71.368 -57.371 -28.975  0.00  0.00    +0.000 A 
ATOM      5  C   UNL     1     -72.373 -58.219 -26.980  0.00  0.00    +0.000 A 
ATOM      6  C   UNL     1     -70.690 -56.330 -29.624  0.00  0.00    +0.000 A 
ATOM      7  C   UNL     1     -72.418 -59.589 -28.986  0.00  0.00    +0.000 A 
ATOM      8  C   UNL     1     -72.751 -59.373 -27.561  0.00  0.00    +0.000 A 
ATOM      9  C   UNL     1     -71.333 -58.654 -31.031  0.00  0.00    +0.000 A 
ATOM     10  C   UNL     1     -70.295 -56.485 -30.957  0.00  0.00    +0.000 A 
ATOM     11  C   UNL     1     -70.625 -57.638 -31.665  0.00  0.00    +0.000 A 
ENDROOT
BRANCH   5  12
ATOM     12  C   UNL     1     -72.646 -57.885 -25.567  0.00  0.00    +0.000 A 
ATOM     13  C   UNL     1     -73.513 -56.830 -25.259  0.00  0.00    +0.000 A 
ATOM     14  C   UNL     1     -72.116 -58.635 -24.512  0.00  0.00    +0.000 A 
ATOM     15  C   UNL     1     -73.826 -56.516 -23.938  0.00  0.00    +0.000 A 
ATOM     16  C   UNL     1     -72.419 -58.330 -23.186  0.00  0.00    +0.000 A 
ATOM     17  C   UNL     1     -73.274 -57.270 -22.910  0.00  0.00    +0.000 A 
BRANCH  17  18
ATOM     18  O   UNL     1     -73.560 -56.989 -21.606  0.00  0.00    +0.000 OA
ATOM     19  H   UNL     1     -74.516 -56.825 -21.534  0.00  0.00    +0.000 HD
ENDBRANCH  17  18
ENDBRANCH   5  12
BRANCH   6  20
ATOM     20  O   UNL     1     -70.321 -55.190 -28.951  0.00  0.00    +0.000 OA
ATOM     21  C   UNL     1     -71.235 -54.144 -29.184  0.00  0.00    +0.000 C 
ENDBRANCH   6  20
BRANCH   8  22
ATOM     22  O   UNL     1     -73.419 -60.394 -26.911  0.00  0.00    +0.000 OA
ATOM     23  H   UNL     1     -72.769 -61.123 -26.825  0.00  0.00    +0.000 HD
ENDBRANCH   8  22
BRANCH   9  24
ATOM     24  O   UNL     1     -71.623 -59.759 -31.783  0.00  0.00    +0.000 OA
ATOM     25  H   UNL     1     -70.829 -60.003 -32.311  0.00  0.00    +0.000 HD
ENDBRANCH   9  24
BRANCH  10  26
ATOM     26  O   UNL     1     -69.564 -55.506 -31.569  0.00  0.00    +0.000 OA
ATOM     27  H   UNL     1     -70.031 -55.230 -32.380  0.00  0.00    +0.000 HD
ENDBRANCH  10  26
TORSDOF 6
ENDMDL
MODEL 5
REMARK VINA RESULT:      -5.0     19.636     24.325
REMARK  Name = 5281698_sexangularetin.pdbqt.pdb
REMARK  6 active torsions:
REMARK  status: ('A' for Active; 'I' for Inactive)
REMARK    1  A    between atoms: C_5  and  C_12
REMARK    2  A    between atoms: C_6  and  O_20
REMARK    3  A    between atoms: C_8  and  O_22
REMARK    4  A    between atoms: C_9  and  O_24
REMARK    5  A    between atoms: C_10  and  O_26
REMARK    6  A    between atoms: C_17  and  O_18
REMARK                            x       y       z     vdW  Elec       q    Type
REMARK                         _______ _______ _______ _____ _____    ______ ____
ROOT
ATOM      1  O   UNL     1     -68.855 -56.785 -36.102  0.00  0.00    +0.000 OA
ATOM      2  O   UNL     1     -67.019 -60.354 -36.656  0.00  0.00    +0.000 OA
ATOM      3  C   UNL     1     -68.088 -58.883 -35.162  0.00  0.00    +0.000 A 
ATOM      4  C   UNL     1     -68.700 -57.636 -35.036  0.00  0.00    +0.000 A 
ATOM      5  C   UNL     1     -68.340 -57.136 -37.344  0.00  0.00    +0.000 A 
ATOM      6  C   UNL     1     -69.197 -57.234 -33.788  0.00  0.00    +0.000 A 
ATOM      7  C   UNL     1     -67.566 -59.269 -36.474  0.00  0.00    +0.000 A 
ATOM      8  C   UNL     1     -67.723 -58.308 -37.588  0.00  0.00    +0.000 A 
ATOM      9  C   UNL     1     -67.991 -59.738 -34.059  0.00  0.00    +0.000 A 
ATOM     10  C   UNL     1     -69.131 -58.113 -32.701  0.00  0.00    +0.000 A 
ATOM     11  C   UNL     1     -68.519 -59.357 -32.830  0.00  0.00    +0.000 A 
ENDROOT
BRANCH   5  12
ATOM     12  C   UNL     1     -68.558 -56.096 -38.370  0.00  0.00    +0.000 A 
ATOM     13  C   UNL     1     -69.835 -55.922 -38.919  0.00  0.00    +0.000 A 
ATOM     14  C   UNL     1     -67.542 -55.223 -38.770  0.00  0.00    +0.000 A 
ATOM     15  C   UNL     1     -70.086 -54.923 -39.857  0.00  0.00    +0.000 A 
ATOM     16  C   UNL     1     -67.779 -54.221 -39.709  0.00  0.00    +0.000 A 
ATOM     17  C   UNL     1     -69.052 -54.079 -40.245  0.00  0.00    +0.000 A 
BRANCH  17  18
ATOM     18  O   UNL     1     -69.265 -53.091 -41.162  0.00  0.00    +0.000 OA
ATOM     19  H   UNL     1     -69.696 -53.486 -41.940  0.00  0.00    +0.000 HD
ENDBRANCH  17  18
ENDBRANCH   5  12
BRANCH   6  20
ATOM     20  O   UNL     1     -69.834 -56.028 -33.629  0.00  0.00    +0.000 OA
ATOM     21  C   UNL     1     -71.203 -56.131 -33.945  0.00  0.00    +0.000 C 
ENDBRANCH   6  20
BRANCH   8  22
ATOM     22  O   UNL     1     -67.238 -58.694 -38.823  0.00  0.00    +0.000 OA
ATOM     23  H   UNL     1     -67.512 -57.991 -39.448  0.00  0.00    +0.000 HD
ENDBRANCH   8  22
BRANCH   9  24
ATOM     24  O   UNL     1     -67.406 -60.973 -34.118  0.00  0.00    +0.000 OA
ATOM     25  H   UNL     1     -67.386 -61.360 -33.213  0.00  0.00    +0.000 HD
ENDBRANCH   9  24
BRANCH  10  26
ATOM     26  O   UNL     1     -69.686 -57.757 -31.504  0.00  0.00    +0.000 OA
ATOM     27  H   UNL     1     -69.225 -56.965 -31.170  0.00  0.00    +0.000 HD
ENDBRANCH  10  26
TORSDOF 6
ENDMDL
MODEL 6
REMARK VINA RESULT:      -4.9     38.839     43.769
REMARK  Name = 5281698_sexangularetin.pdbqt.pdb
REMARK  6 active torsions:
REMARK  status: ('A' for Active; 'I' for Inactive)
REMARK    1  A    between atoms: C_5  and  C_12
REMARK    2  A    between atoms: C_6  and  O_20
REMARK    3  A    between atoms: C_8  and  O_22
REMARK    4  A    between atoms: C_9  and  O_24
REMARK    5  A    between atoms: C_10  and  O_26
REMARK    6  A    between atoms: C_17  and  O_18
REMARK                            x       y       z     vdW  Elec       q    Type
REMARK                         _______ _______ _______ _____ _____    ______ ____
ROOT
ATOM      1  O   UNL     1     -64.550 -57.587 -15.050  0.00  0.00    +0.000 OA
ATOM      2  O   UNL     1     -63.548 -56.444 -11.294  0.00  0.00    +0.000 OA
ATOM      3  C   UNL     1     -64.197 -58.192 -12.731  0.00  0.00    +0.000 A 
ATOM      4  C   UNL     1     -64.543 -58.517 -14.042  0.00  0.00    +0.000 A 
ATOM      5  C   UNL     1     -64.260 -56.257 -14.763  0.00  0.00    +0.000 A 
ATOM      6  C   UNL     1     -64.879 -59.841 -14.358  0.00  0.00    +0.000 A 
ATOM      7  C   UNL     1     -63.866 -56.798 -12.427  0.00  0.00    +0.000 A 
ATOM      8  C   UNL     1     -63.918 -55.820 -13.537  0.00  0.00    +0.000 A 
ATOM      9  C   UNL     1     -64.160 -59.181 -11.742  0.00  0.00    +0.000 A 
ATOM     10  C   UNL     1     -64.800 -60.830 -13.372  0.00  0.00    +0.000 A 
ATOM     11  C   UNL     1     -64.454 -60.502 -12.064  0.00  0.00    +0.000 A 
ENDROOT
BRANCH   5  12
ATOM     12  C   UNL     1     -64.348 -55.382 -15.950  0.00  0.00    +0.000 A 
ATOM     13  C   UNL     1     -63.243 -55.256 -16.801  0.00  0.00    +0.000 A 
ATOM     14  C   UNL     1     -65.529 -54.718 -16.297  0.00  0.00    +0.000 A 
ATOM     15  C   UNL     1     -63.305 -54.473 -17.952  0.00  0.00    +0.000 A 
ATOM     16  C   UNL     1     -65.604 -53.931 -17.444  0.00  0.00    +0.000 A 
ATOM     17  C   UNL     1     -64.488 -53.815 -18.264  0.00  0.00    +0.000 A 
BRANCH  17  18
ATOM     18  O   UNL     1     -64.582 -53.040 -19.383  0.00  0.00    +0.000 OA
ATOM     19  H   UNL     1     -63.762 -52.521 -19.462  0.00  0.00    +0.000 HD
ENDBRANCH  17  18
ENDBRANCH   5  12
BRANCH   6  20
ATOM     20  O   UNL     1     -65.196 -60.209 -15.643  0.00  0.00    +0.000 OA
ATOM     21  C   UNL     1     -64.041 -60.553 -16.373  0.00  0.00    +0.000 C 
ENDBRANCH   6  20
BRANCH   8  22
ATOM     22  O   UNL     1     -63.588 -54.513 -13.236  0.00  0.00    +0.000 OA
ATOM     23  H   UNL     1     -62.666 -54.393 -13.547  0.00  0.00    +0.000 HD
ENDBRANCH   8  22
BRANCH   9  24
ATOM     24  O   UNL     1     -63.826 -58.928 -10.440  0.00  0.00    +0.000 OA
ATOM     25  H   UNL     1     -63.467 -58.014 -10.375  0.00  0.00    +0.000 HD
ENDBRANCH   9  24
BRANCH  10  26
ATOM     26  O   UNL     1     -65.048 -62.135 -13.695  0.00  0.00    +0.000 OA
ATOM     27  H   UNL     1     -64.197 -62.602 -13.780  0.00  0.00    +0.000 HD
ENDBRANCH  10  26
TORSDOF 6
ENDMDL
MODEL 7
REMARK VINA RESULT:      -4.9     18.664     22.454
REMARK  Name = 5281698_sexangularetin.pdbqt.pdb
REMARK  6 active torsions:
REMARK  status: ('A' for Active; 'I' for Inactive)
REMARK    1  A    between atoms: C_5  and  C_12
REMARK    2  A    between atoms: C_6  and  O_20
REMARK    3  A    between atoms: C_8  and  O_22
REMARK    4  A    between atoms: C_9  and  O_24
REMARK    5  A    between atoms: C_10  and  O_26
REMARK    6  A    between atoms: C_17  and  O_18
REMARK                            x       y       z     vdW  Elec       q    Type
REMARK                         _______ _______ _______ _____ _____    ______ ____
ROOT
ATOM      1  O   UNL     1     -67.815 -56.928 -37.672  0.00  0.00    +0.000 OA
ATOM      2  O   UNL     1     -67.959 -60.646 -39.275  0.00  0.00    +0.000 OA
ATOM      3  C   UNL     1     -67.642 -58.341 -39.632  0.00  0.00    +0.000 A 
ATOM      4  C   UNL     1     -67.617 -57.089 -39.020  0.00  0.00    +0.000 A 
ATOM      5  C   UNL     1     -68.109 -58.034 -36.882  0.00  0.00    +0.000 A 
ATOM      6  C   UNL     1     -67.362 -55.948 -39.794  0.00  0.00    +0.000 A 
ATOM      7  C   UNL     1     -67.926 -59.513 -38.801  0.00  0.00    +0.000 A 
ATOM      8  C   UNL     1     -68.167 -59.292 -37.358  0.00  0.00    +0.000 A 
ATOM      9  C   UNL     1     -67.391 -58.465 -41.003  0.00  0.00    +0.000 A 
ATOM     10  C   UNL     1     -67.072 -56.086 -41.156  0.00  0.00    +0.000 A 
ATOM     11  C   UNL     1     -67.098 -57.338 -41.764  0.00  0.00    +0.000 A 
ENDROOT
BRANCH   5  12
ATOM     12  C   UNL     1     -68.330 -57.683 -35.464  0.00  0.00    +0.000 A 
ATOM     13  C   UNL     1     -69.524 -57.060 -35.082  0.00  0.00    +0.000 A 
ATOM     14  C   UNL     1     -67.409 -58.016 -34.465  0.00  0.00    +0.000 A 
ATOM     15  C   UNL     1     -69.783 -56.754 -33.748  0.00  0.00    +0.000 A 
ATOM     16  C   UNL     1     -67.655 -57.714 -33.127  0.00  0.00    +0.000 A 
ATOM     17  C   UNL     1     -68.843 -57.085 -32.779  0.00  0.00    +0.000 A 
BRANCH  17  18
ATOM     18  O   UNL     1     -69.066 -56.799 -31.464  0.00  0.00    +0.000 OA
ATOM     19  H   UNL     1     -68.859 -57.594 -30.942  0.00  0.00    +0.000 HD
ENDBRANCH  17  18
ENDBRANCH   5  12
BRANCH   6  20
ATOM     20  O   UNL     1     -67.298 -54.699 -39.225  0.00  0.00    +0.000 OA
ATOM     21  C   UNL     1     -68.540 -54.040 -39.308  0.00  0.00    +0.000 C 
ENDBRANCH   6  20
BRANCH   8  22
ATOM     22  O   UNL     1     -68.418 -60.410 -36.585  0.00  0.00    +0.000 OA
ATOM     23  H   UNL     1     -67.607 -60.958 -36.640  0.00  0.00    +0.000 HD
ENDBRANCH   8  22
BRANCH   9  24
ATOM     24  O   UNL     1     -67.398 -59.664 -41.661  0.00  0.00    +0.000 OA
ATOM     25  H   UNL     1     -66.927 -60.332 -41.113  0.00  0.00    +0.000 HD
ENDBRANCH   9  24
BRANCH  10  26
ATOM     26  O   UNL     1     -66.744 -54.986 -41.897  0.00  0.00    +0.000 OA
ATOM     27  H   UNL     1     -66.249 -54.365 -41.331  0.00  0.00    +0.000 HD
ENDBRANCH  10  26
TORSDOF 6
ENDMDL
MODEL 8
REMARK VINA RESULT:      -4.9      2.858      6.594
REMARK  Name = 5281698_sexangularetin.pdbqt.pdb
REMARK  6 active torsions:
REMARK  status: ('A' for Active; 'I' for Inactive)
REMARK    1  A    between atoms: C_5  and  C_12
REMARK    2  A    between atoms: C_6  and  O_20
REMARK    3  A    between atoms: C_8  and  O_22
REMARK    4  A    between atoms: C_9  and  O_24
REMARK    5  A    between atoms: C_10  and  O_26
REMARK    6  A    between atoms: C_17  and  O_18
REMARK                            x       y       z     vdW  Elec       q    Type
REMARK                         _______ _______ _______ _____ _____    ______ ____
ROOT
ATOM      1  O   UNL     1     -65.730 -46.653 -59.239  0.00  0.00    +0.000 OA
ATOM      2  O   UNL     1     -65.465 -47.473 -55.280  0.00  0.00    +0.000 OA
ATOM      3  C   UNL     1     -66.833 -47.328 -57.190  0.00  0.00    +0.000 A 
ATOM      4  C   UNL     1     -66.858 -47.021 -58.550  0.00  0.00    +0.000 A 
ATOM      5  C   UNL     1     -64.522 -46.520 -58.563  0.00  0.00    +0.000 A 
ATOM      6  C   UNL     1     -68.068 -47.107 -59.254  0.00  0.00    +0.000 A 
ATOM      7  C   UNL     1     -65.559 -47.215 -56.478  0.00  0.00    +0.000 A 
ATOM      8  C   UNL     1     -64.374 -46.781 -57.251  0.00  0.00    +0.000 A 
ATOM      9  C   UNL     1     -67.998 -47.742 -56.536  0.00  0.00    +0.000 A 
ATOM     10  C   UNL     1     -69.219 -47.561 -58.601  0.00  0.00    +0.000 A 
ATOM     11  C   UNL     1     -69.190 -47.867 -57.243  0.00  0.00    +0.000 A 
ENDROOT
BRANCH   5  12
ATOM     12  C   UNL     1     -63.418 -46.082 -59.442  0.00  0.00    +0.000 A 
ATOM     13  C   UNL     1     -63.035 -44.735 -59.454  0.00  0.00    +0.000 A 
ATOM     14  C   UNL     1     -62.688 -46.984 -60.221  0.00  0.00    +0.000 A 
ATOM     15  C   UNL     1     -61.971 -44.296 -60.238  0.00  0.00    +0.000 A 
ATOM     16  C   UNL     1     -61.622 -46.558 -61.011  0.00  0.00    +0.000 A 
ATOM     17  C   UNL     1     -61.272 -45.213 -61.012  0.00  0.00    +0.000 A 
BRANCH  17  18
ATOM     18  O   UNL     1     -60.225 -44.815 -61.791  0.00  0.00    +0.000 OA
ATOM     19  H   UNL     1     -60.426 -43.929 -62.140  0.00  0.00    +0.000 HD
ENDBRANCH  17  18
ENDBRANCH   5  12
BRANCH   6  20
ATOM     20  O   UNL     1     -68.129 -46.844 -60.601  0.00  0.00    +0.000 OA
ATOM     21  C   UNL     1     -68.484 -45.502 -60.840  0.00  0.00    +0.000 C 
ENDBRANCH   6  20
BRANCH   8  22
ATOM     22  O   UNL     1     -63.176 -46.694 -56.567  0.00  0.00    +0.000 OA
ATOM     23  H   UNL     1     -63.158 -47.467 -55.964  0.00  0.00    +0.000 HD
ENDBRANCH   8  22
BRANCH   9  24
ATOM     24  O   UNL     1     -68.039 -48.060 -55.206  0.00  0.00    +0.000 OA
ATOM     25  H   UNL     1     -68.944 -48.373 -54.980  0.00  0.00    +0.000 HD
ENDBRANCH   9  24
BRANCH  10  26
ATOM     26  O   UNL     1     -70.380 -47.724 -59.302  0.00  0.00    +0.000 OA
ATOM     27  H   UNL     1     -70.449 -47.009 -59.962  0.00  0.00    +0.000 HD
ENDBRANCH  10  26
TORSDOF 6
ENDMDL
MODEL 9
REMARK VINA RESULT:      -4.8     29.231     34.429
REMARK  Name = 5281698_sexangularetin.pdbqt.pdb
REMARK  6 active torsions:
REMARK  status: ('A' for Active; 'I' for Inactive)
REMARK    1  A    between atoms: C_5  and  C_12
REMARK    2  A    between atoms: C_6  and  O_20
REMARK    3  A    between atoms: C_8  and  O_22
REMARK    4  A    between atoms: C_9  and  O_24
REMARK    5  A    between atoms: C_10  and  O_26
REMARK    6  A    between atoms: C_17  and  O_18
REMARK                            x       y       z     vdW  Elec       q    Type
REMARK                         _______ _______ _______ _____ _____    ______ ____
ROOT
ATOM      1  O   UNL     1     -61.813 -51.218 -23.162  0.00  0.00    +0.000 OA
ATOM      2  O   UNL     1     -62.032 -55.229 -22.627  0.00  0.00    +0.000 OA
ATOM      3  C   UNL     1     -62.324 -53.083 -21.703  0.00  0.00    +0.000 A 
ATOM      4  C   UNL     1     -62.216 -51.715 -21.948  0.00  0.00    +0.000 A 
ATOM      5  C   UNL     1     -61.439 -52.094 -24.176  0.00  0.00    +0.000 A 
ATOM      6  C   UNL     1     -62.548 -50.805 -20.936  0.00  0.00    +0.000 A 
ATOM      7  C   UNL     1     -61.957 -54.011 -22.775  0.00  0.00    +0.000 A 
ATOM      8  C   UNL     1     -61.494 -53.434 -24.057  0.00  0.00    +0.000 A 
ATOM      9  C   UNL     1     -62.783 -53.547 -20.465  0.00  0.00    +0.000 A 
ATOM     10  C   UNL     1     -63.043 -51.277 -19.715  0.00  0.00    +0.000 A 
ATOM     11  C   UNL     1     -63.150 -52.644 -19.473  0.00  0.00    +0.000 A 
ENDROOT
BRANCH   5  12
ATOM     12  C   UNL     1     -60.996 -51.398 -25.401  0.00  0.00    +0.000 A 
ATOM     13  C   UNL     1     -61.920 -50.659 -26.151  0.00  0.00    +0.000 A 
ATOM     14  C   UNL     1     -59.659 -51.392 -25.809  0.00  0.00    +0.000 A 
ATOM     15  C   UNL     1     -61.528 -49.956 -27.287  0.00  0.00    +0.000 A 
ATOM     16  C   UNL     1     -59.253 -50.694 -26.945  0.00  0.00    +0.000 A 
ATOM     17  C   UNL     1     -60.194 -49.980 -27.676  0.00  0.00    +0.000 A 
BRANCH  17  18
ATOM     18  O   UNL     1     -59.778 -49.301 -28.784  0.00  0.00    +0.000 OA
ATOM     19  H   UNL     1     -58.821 -49.449 -28.888  0.00  0.00    +0.000 HD
ENDBRANCH  17  18
ENDBRANCH   5  12
BRANCH   6  20
ATOM     20  O   UNL     1     -62.485 -49.449 -21.147  0.00  0.00    +0.000 OA
ATOM     21  C   UNL     1     -61.222 -48.938 -20.789  0.00  0.00    +0.000 C 
ENDBRANCH   6  20
BRANCH   8  22
ATOM     22  O   UNL     1     -61.166 -54.323 -25.062  0.00  0.00    +0.000 OA
ATOM     23  H   UNL     1     -61.918 -54.949 -25.120  0.00  0.00    +0.000 HD
ENDBRANCH   8  22
BRANCH   9  24
ATOM     24  O   UNL     1     -62.914 -54.875 -20.163  0.00  0.00    +0.000 OA
ATOM     25  H   UNL     1     -62.562 -55.408 -20.912  0.00  0.00    +0.000 HD
ENDBRANCH   9  24
BRANCH  10  26
ATOM     26  O   UNL     1     -63.443 -50.391 -18.754  0.00  0.00    +0.000 OA
ATOM     27  H   UNL     1     -62.851 -49.616 -18.778  0.00  0.00    +0.000 HD
ENDBRANCH  10  26
TORSDOF 6
ENDMDL
