MODEL 1
REMARK VINA RESULT:      -6.4      0.000      0.000
REMARK  Name = 5289155_Peridinin.pdbqt.pdb
REMARK  13 active torsions:
REMARK  status: ('A' for Active; 'I' for Inactive)
REMARK    1  A    between atoms: C_1  and  C_3
REMARK    2  A    between atoms: C_3  and  C_25
REMARK    3  A    between atoms: C_6  and  C_12
REMARK    4  A    between atoms: C_11  and  C_14
REMARK    5  A    between atoms: C_19  and  O_23
REMARK    6  A    between atoms: C_26  and  C_28
REMARK    7  A    between atoms: C_27  and  C_31
REMARK    8  A    between atoms: C_29  and  C_31
REMARK    9  A    between atoms: C_29  and  C_42
REMARK   10  A    between atoms: C_33  and  O_43
REMARK   11  A    between atoms: C_35  and  O_45
REMARK   12  A    between atoms: C_37  and  C_41
REMARK   13  A    between atoms: O_45  and  C_47
REMARK                            x       y       z     vdW  Elec       q    Type
REMARK                         _______ _______ _______ _____ _____    ______ ____
ROOT
ATOM      1  C   UNL     1     -71.794 -57.175 -29.010  0.00  0.00    +0.000 C 
ENDROOT
BRANCH   1   2
ATOM      2  C   UNL     1     -71.891 -58.404 -28.609  0.00  0.00    +0.000 C 
ATOM      3  C   UNL     1     -72.108 -59.505 -29.600  0.00  0.00    +0.000 C 
ATOM      4  O   UNL     1     -71.973 -58.054 -25.022  0.00  0.00    +0.000 OA
ATOM      5  O   UNL     1     -72.380 -58.364 -22.762  0.00  0.00    +0.000 OA
ATOM      6  C   UNL     1     -71.868 -60.230 -24.208  0.00  0.00    +0.000 C 
ATOM      7  C   UNL     1     -71.606 -60.291 -25.462  0.00  0.00    +0.000 C 
ATOM      8  C   UNL     1     -72.105 -58.809 -23.862  0.00  0.00    +0.000 C 
ATOM      9  C   UNL     1     -71.628 -59.000 -25.983  0.00  0.00    +0.000 C 
ATOM     10  C   UNL     1     -71.755 -58.713 -27.237  0.00  0.00    +0.000 C 
BRANCH   6  12
ATOM     11  C   UNL     1     -71.983 -62.307 -22.634  0.00  0.00    +0.000 C 
ATOM     12  C   UNL     1     -71.928 -61.348 -23.355  0.00  0.00    +0.000 C 
BRANCH  11  14
ATOM     13  O   UNL     1     -73.440 -63.709 -21.372  0.00  0.00    +0.000 OA
ATOM     14  C   UNL     1     -72.058 -63.473 -21.767  0.00  0.00    +0.000 C 
ATOM     15  C   UNL     1     -72.872 -64.702 -22.222  0.00  0.00    +0.000 C 
ATOM     16  C   UNL     1     -70.969 -63.681 -20.658  0.00  0.00    +0.000 C 
ATOM     17  C   UNL     1     -72.638 -65.932 -21.535  0.00  0.00    +0.000 C 
ATOM     18  C   UNL     1     -71.113 -65.054 -20.166  0.00  0.00    +0.000 C 
ATOM     19  C   UNL     1     -71.797 -66.250 -20.454  0.00  0.00    +0.000 C 
ATOM     20  C   UNL     1     -73.556 -64.804 -23.589  0.00  0.00    +0.000 C 
ATOM     21  C   UNL     1     -69.603 -63.495 -21.372  0.00  0.00    +0.000 C 
ATOM     22  C   UNL     1     -71.228 -62.608 -19.578  0.00  0.00    +0.000 C 
BRANCH  19  23
ATOM     23  O   UNL     1     -71.192 -67.464 -20.326  0.00  0.00    +0.000 OA
ATOM     24  H   UNL     1     -70.272 -67.389 -20.016  0.00  0.00    +0.000 HD
ENDBRANCH  19  23
ENDBRANCH  11  14
ENDBRANCH   6  12
ENDBRANCH   1   2
BRANCH   1  25
ATOM     25  C   UNL     1     -71.679 -55.722 -29.484  0.00  0.00    +0.000 C 
ATOM     26  C   UNL     1     -71.589 -54.583 -29.849  0.00  0.00    +0.000 C 
BRANCH  26  28
ATOM     27  C   UNL     1     -71.385 -51.983 -30.663  0.00  0.00    +0.000 C 
ATOM     28  C   UNL     1     -71.472 -53.126 -30.308  0.00  0.00    +0.000 C 
BRANCH  27  29
ATOM     29  C   UNL     1     -71.280 -50.521 -31.115  0.00  0.00    +0.000 C 
BRANCH  29  30
ATOM     30  C   UNL     1     -71.202 -49.285 -31.493  0.00  0.00    +0.000 C 
ATOM     31  C   UNL     1     -72.248 -48.297 -31.074  0.00  0.00    +0.000 C 
BRANCH  30  33
ATOM     32  C   UNL     1     -69.262 -48.522 -33.081  0.00  0.00    +0.000 C 
ATOM     33  C   UNL     1     -70.152 -48.874 -32.353  0.00  0.00    +0.000 C 
BRANCH  32  39
ATOM     34  C   UNL     1     -67.043 -47.388 -33.351  0.00  0.00    +0.000 C 
ATOM     35  C   UNL     1     -68.351 -48.368 -35.375  0.00  0.00    +0.000 C 
ATOM     36  C   UNL     1     -65.978 -47.350 -34.363  0.00  0.00    +0.000 C 
ATOM     37  C   UNL     1     -65.771 -47.712 -35.710  0.00  0.00    +0.000 C 
ATOM     38  C   UNL     1     -67.056 -48.201 -36.025  0.00  0.00    +0.000 C 
ATOM     39  C   UNL     1     -68.282 -48.138 -33.874  0.00  0.00    +0.000 C 
ATOM     40  C   UNL     1     -66.489 -48.129 -32.097  0.00  0.00    +0.000 C 
ATOM     41  C   UNL     1     -67.463 -45.943 -32.971  0.00  0.00    +0.000 C 
ATOM     42  C   UNL     1     -69.417 -47.474 -36.017  0.00  0.00    +0.000 C 
BRANCH  35  43
ATOM     43  O   UNL     1     -68.786 -49.687 -35.622  0.00  0.00    +0.000 OA
ATOM     44  H   UNL     1     -67.943 -50.177 -35.589  0.00  0.00    +0.000 HD
ENDBRANCH  35  43
BRANCH  37  45
ATOM     45  O   UNL     1     -65.132 -46.817 -36.559  0.00  0.00    +0.000 OA
BRANCH  45  47
ATOM     46  O   UNL     1     -63.023 -47.826 -36.372  0.00  0.00    +0.000 OA
ATOM     47  C   UNL     1     -63.957 -47.344 -36.984  0.00  0.00    +0.000 C 
ATOM     48  C   UNL     1     -63.776 -47.314 -38.461  0.00  0.00    +0.000 C 
ENDBRANCH  45  47
ENDBRANCH  37  45
ENDBRANCH  32  39
ENDBRANCH  30  33
ENDBRANCH  29  30
ENDBRANCH  27  29
ENDBRANCH  26  28
ENDBRANCH   1  25
TORSDOF 13
ENDMDL
MODEL 2
REMARK VINA RESULT:      -6.4     12.684     17.437
REMARK  Name = 5289155_Peridinin.pdbqt.pdb
REMARK  13 active torsions:
REMARK  status: ('A' for Active; 'I' for Inactive)
REMARK    1  A    between atoms: C_1  and  C_3
REMARK    2  A    between atoms: C_3  and  C_25
REMARK    3  A    between atoms: C_6  and  C_12
REMARK    4  A    between atoms: C_11  and  C_14
REMARK    5  A    between atoms: C_19  and  O_23
REMARK    6  A    between atoms: C_26  and  C_28
REMARK    7  A    between atoms: C_27  and  C_31
REMARK    8  A    between atoms: C_29  and  C_31
REMARK    9  A    between atoms: C_29  and  C_42
REMARK   10  A    between atoms: C_33  and  O_43
REMARK   11  A    between atoms: C_35  and  O_45
REMARK   12  A    between atoms: C_37  and  C_41
REMARK   13  A    between atoms: O_45  and  C_47
REMARK                            x       y       z     vdW  Elec       q    Type
REMARK                         _______ _______ _______ _____ _____    ______ ____
ROOT
ATOM      1  C   UNL     1     -66.200 -56.038 -41.922  0.00  0.00    +0.000 C 
ENDROOT
BRANCH   1   2
ATOM      2  C   UNL     1     -66.724 -55.499 -40.866  0.00  0.00    +0.000 C 
ATOM      3  C   UNL     1     -66.718 -54.011 -40.698  0.00  0.00    +0.000 C 
ATOM      4  O   UNL     1     -67.472 -58.365 -38.812  0.00  0.00    +0.000 OA
ATOM      5  O   UNL     1     -67.850 -59.784 -37.019  0.00  0.00    +0.000 OA
ATOM      6  C   UNL     1     -68.670 -57.512 -37.011  0.00  0.00    +0.000 C 
ATOM      7  C   UNL     1     -68.588 -56.571 -37.879  0.00  0.00    +0.000 C 
ATOM      8  C   UNL     1     -67.976 -58.700 -37.560  0.00  0.00    +0.000 C 
ATOM      9  C   UNL     1     -67.901 -57.053 -38.990  0.00  0.00    +0.000 C 
ATOM     10  C   UNL     1     -67.337 -56.312 -39.887  0.00  0.00    +0.000 C 
BRANCH   6  12
ATOM     11  C   UNL     1     -69.854 -57.275 -34.698  0.00  0.00    +0.000 C 
ATOM     12  C   UNL     1     -69.304 -57.383 -35.761  0.00  0.00    +0.000 C 
BRANCH  11  14
ATOM     13  O   UNL     1     -70.495 -58.414 -32.704  0.00  0.00    +0.000 OA
ATOM     14  C   UNL     1     -70.529 -57.143 -33.417  0.00  0.00    +0.000 C 
ATOM     15  C   UNL     1     -69.731 -57.364 -32.114  0.00  0.00    +0.000 C 
ATOM     16  C   UNL     1     -71.868 -56.330 -33.330  0.00  0.00    +0.000 C 
ATOM     17  C   UNL     1     -70.315 -56.888 -30.901  0.00  0.00    +0.000 C 
ATOM     18  C   UNL     1     -72.143 -56.106 -31.909  0.00  0.00    +0.000 C 
ATOM     19  C   UNL     1     -71.544 -56.257 -30.644  0.00  0.00    +0.000 C 
ATOM     20  C   UNL     1     -68.226 -57.643 -32.084  0.00  0.00    +0.000 C 
ATOM     21  C   UNL     1     -71.589 -54.986 -34.054  0.00  0.00    +0.000 C 
ATOM     22  C   UNL     1     -72.946 -57.178 -34.041  0.00  0.00    +0.000 C 
BRANCH  19  23
ATOM     23  O   UNL     1     -71.700 -55.320 -29.667  0.00  0.00    +0.000 OA
ATOM     24  H   UNL     1     -70.922 -55.261 -29.083  0.00  0.00    +0.000 HD
ENDBRANCH  19  23
ENDBRANCH  11  14
ENDBRANCH   6  12
ENDBRANCH   1   2
BRANCH   1  25
ATOM     25  C   UNL     1     -65.580 -56.675 -43.171  0.00  0.00    +0.000 C 
ATOM     26  C   UNL     1     -65.099 -57.171 -44.152  0.00  0.00    +0.000 C 
BRANCH  26  28
ATOM     27  C   UNL     1     -64.011 -58.299 -46.389  0.00  0.00    +0.000 C 
ATOM     28  C   UNL     1     -64.491 -57.802 -45.408  0.00  0.00    +0.000 C 
BRANCH  27  29
ATOM     29  C   UNL     1     -63.392 -58.936 -47.639  0.00  0.00    +0.000 C 
BRANCH  29  30
ATOM     30  C   UNL     1     -62.864 -59.483 -48.688  0.00  0.00    +0.000 C 
ATOM     31  C   UNL     1     -63.490 -60.696 -49.307  0.00  0.00    +0.000 C 
BRANCH  30  33
ATOM     32  C   UNL     1     -60.632 -58.527 -49.674  0.00  0.00    +0.000 C 
ATOM     33  C   UNL     1     -61.657 -58.965 -49.223  0.00  0.00    +0.000 C 
BRANCH  32  39
ATOM     34  C   UNL     1     -59.459 -56.792 -51.051  0.00  0.00    +0.000 C 
ATOM     35  C   UNL     1     -58.184 -58.765 -49.933  0.00  0.00    +0.000 C 
ATOM     36  C   UNL     1     -58.081 -56.305 -51.209  0.00  0.00    +0.000 C 
ATOM     37  C   UNL     1     -56.767 -56.690 -50.875  0.00  0.00    +0.000 C 
ATOM     38  C   UNL     1     -57.034 -57.923 -50.245  0.00  0.00    +0.000 C 
ATOM     39  C   UNL     1     -59.506 -58.051 -50.167  0.00  0.00    +0.000 C 
ATOM     40  C   UNL     1     -60.294 -55.661 -50.374  0.00  0.00    +0.000 C 
ATOM     41  C   UNL     1     -60.061 -57.137 -52.439  0.00  0.00    +0.000 C 
ATOM     42  C   UNL     1     -58.132 -60.088 -50.702  0.00  0.00    +0.000 C 
BRANCH  35  43
ATOM     43  O   UNL     1     -58.089 -59.129 -48.573  0.00  0.00    +0.000 OA
ATOM     44  H   UNL     1     -57.341 -59.755 -48.593  0.00  0.00    +0.000 HD
ENDBRANCH  35  43
BRANCH  37  45
ATOM     45  O   UNL     1     -55.770 -56.593 -51.837  0.00  0.00    +0.000 OA
BRANCH  45  47
ATOM     46  O   UNL     1     -56.398 -58.293 -53.326  0.00  0.00    +0.000 OA
ATOM     47  C   UNL     1     -56.198 -57.137 -53.002  0.00  0.00    +0.000 C 
ATOM     48  C   UNL     1     -56.456 -56.143 -54.079  0.00  0.00    +0.000 C 
ENDBRANCH  45  47
ENDBRANCH  37  45
ENDBRANCH  32  39
ENDBRANCH  30  33
ENDBRANCH  29  30
ENDBRANCH  27  29
ENDBRANCH  26  28
ENDBRANCH   1  25
TORSDOF 13
ENDMDL
MODEL 3
REMARK VINA RESULT:      -6.4     18.914     25.901
REMARK  Name = 5289155_Peridinin.pdbqt.pdb
REMARK  13 active torsions:
REMARK  status: ('A' for Active; 'I' for Inactive)
REMARK    1  A    between atoms: C_1  and  C_3
REMARK    2  A    between atoms: C_3  and  C_25
REMARK    3  A    between atoms: C_6  and  C_12
REMARK    4  A    between atoms: C_11  and  C_14
REMARK    5  A    between atoms: C_19  and  O_23
REMARK    6  A    between atoms: C_26  and  C_28
REMARK    7  A    between atoms: C_27  and  C_31
REMARK    8  A    between atoms: C_29  and  C_31
REMARK    9  A    between atoms: C_29  and  C_42
REMARK   10  A    between atoms: C_33  and  O_43
REMARK   11  A    between atoms: C_35  and  O_45
REMARK   12  A    between atoms: C_37  and  C_41
REMARK   13  A    between atoms: O_45  and  C_47
REMARK                            x       y       z     vdW  Elec       q    Type
REMARK                         _______ _______ _______ _____ _____    ______ ____
ROOT
ATOM      1  C   UNL     1     -67.209 -51.933 -51.687  0.00  0.00    +0.000 C 
ENDROOT
BRANCH   1   2
ATOM      2  C   UNL     1     -67.286 -52.634 -50.600  0.00  0.00    +0.000 C 
ATOM      3  C   UNL     1     -68.500 -52.539 -49.727  0.00  0.00    +0.000 C 
ATOM      4  O   UNL     1     -63.989 -54.068 -50.355  0.00  0.00    +0.000 OA
ATOM      5  O   UNL     1     -61.999 -54.961 -49.568  0.00  0.00    +0.000 OA
ATOM      6  C   UNL     1     -64.119 -55.565 -48.579  0.00  0.00    +0.000 C 
ATOM      7  C   UNL     1     -65.321 -55.208 -48.852  0.00  0.00    +0.000 C 
ATOM      8  C   UNL     1     -63.213 -54.869 -49.523  0.00  0.00    +0.000 C 
ATOM      9  C   UNL     1     -65.289 -54.333 -49.934  0.00  0.00    +0.000 C 
ATOM     10  C   UNL     1     -66.241 -53.520 -50.253  0.00  0.00    +0.000 C 
BRANCH   6  12
ATOM     11  C   UNL     1     -63.468 -57.212 -46.664  0.00  0.00    +0.000 C 
ATOM     12  C   UNL     1     -63.771 -56.451 -47.543  0.00  0.00    +0.000 C 
BRANCH  11  14
ATOM     13  O   UNL     1     -63.663 -59.456 -45.882  0.00  0.00    +0.000 OA
ATOM     14  C   UNL     1     -63.098 -58.141 -45.608  0.00  0.00    +0.000 C 
ATOM     15  C   UNL     1     -62.241 -59.378 -45.954  0.00  0.00    +0.000 C 
ATOM     16  C   UNL     1     -63.131 -57.664 -44.114  0.00  0.00    +0.000 C 
ATOM     17  C   UNL     1     -61.607 -60.058 -44.870  0.00  0.00    +0.000 C 
ATOM     18  C   UNL     1     -62.428 -58.678 -43.323  0.00  0.00    +0.000 C 
ATOM     19  C   UNL     1     -61.638 -59.832 -43.483  0.00  0.00    +0.000 C 
ATOM     20  C   UNL     1     -61.681 -59.652 -47.353  0.00  0.00    +0.000 C 
ATOM     21  C   UNL     1     -62.362 -56.317 -44.087  0.00  0.00    +0.000 C 
ATOM     22  C   UNL     1     -64.620 -57.509 -43.734  0.00  0.00    +0.000 C 
BRANCH  19  23
ATOM     23  O   UNL     1     -60.570 -60.080 -42.674  0.00  0.00    +0.000 OA
ATOM     24  H   UNL     1     -60.360 -59.326 -42.095  0.00  0.00    +0.000 HD
ENDBRANCH  19  23
ENDBRANCH  11  14
ENDBRANCH   6  12
ENDBRANCH   1   2
BRANCH   1  25
ATOM     25  C   UNL     1     -67.116 -51.104 -52.973  0.00  0.00    +0.000 C 
ATOM     26  C   UNL     1     -67.049 -50.458 -53.982  0.00  0.00    +0.000 C 
BRANCH  26  28
ATOM     27  C   UNL     1     -66.913 -48.986 -56.279  0.00  0.00    +0.000 C 
ATOM     28  C   UNL     1     -66.970 -49.635 -55.271  0.00  0.00    +0.000 C 
BRANCH  27  29
ATOM     29  C   UNL     1     -66.846 -48.155 -57.566  0.00  0.00    +0.000 C 
BRANCH  29  30
ATOM     30  C   UNL     1     -66.781 -47.459 -58.656  0.00  0.00    +0.000 C 
ATOM     31  C   UNL     1     -67.933 -47.442 -59.614  0.00  0.00    +0.000 C 
BRANCH  30  33
ATOM     32  C   UNL     1     -64.587 -46.153 -59.246  0.00  0.00    +0.000 C 
ATOM     33  C   UNL     1     -65.593 -46.752 -58.974  0.00  0.00    +0.000 C 
BRANCH  32  39
ATOM     34  C   UNL     1     -62.137 -46.194 -59.775  0.00  0.00    +0.000 C 
ATOM     35  C   UNL     1     -63.482 -43.973 -59.624  0.00  0.00    +0.000 C 
ATOM     36  C   UNL     1     -61.160 -45.283 -60.387  0.00  0.00    +0.000 C 
ATOM     37  C   UNL     1     -61.047 -43.925 -60.749  0.00  0.00    +0.000 C 
ATOM     38  C   UNL     1     -62.296 -43.454 -60.297  0.00  0.00    +0.000 C 
ATOM     39  C   UNL     1     -63.487 -45.491 -59.545  0.00  0.00    +0.000 C 
ATOM     40  C   UNL     1     -62.346 -47.398 -60.744  0.00  0.00    +0.000 C 
ATOM     41  C   UNL     1     -61.603 -46.701 -58.408  0.00  0.00    +0.000 C 
ATOM     42  C   UNL     1     -63.652 -43.351 -58.234  0.00  0.00    +0.000 C 
BRANCH  35  43
ATOM     43  O   UNL     1     -64.610 -43.543 -60.356  0.00  0.00    +0.000 OA
ATOM     44  H   UNL     1     -64.230 -43.433 -61.248  0.00  0.00    +0.000 HD
ENDBRANCH  35  43
BRANCH  37  45
ATOM     45  O   UNL     1     -59.881 -43.238 -60.436  0.00  0.00    +0.000 OA
BRANCH  45  47
ATOM     46  O   UNL     1     -59.859 -42.273 -62.574  0.00  0.00    +0.000 OA
ATOM     47  C   UNL     1     -59.342 -42.707 -61.561  0.00  0.00    +0.000 C 
ATOM     48  C   UNL     1     -57.855 -42.659 -61.560  0.00  0.00    +0.000 C 
ENDBRANCH  45  47
ENDBRANCH  37  45
ENDBRANCH  32  39
ENDBRANCH  30  33
ENDBRANCH  29  30
ENDBRANCH  27  29
ENDBRANCH  26  28
ENDBRANCH   1  25
TORSDOF 13
ENDMDL
MODEL 4
REMARK VINA RESULT:      -6.3     26.548     35.340
REMARK  Name = 5289155_Peridinin.pdbqt.pdb
REMARK  13 active torsions:
REMARK  status: ('A' for Active; 'I' for Inactive)
REMARK    1  A    between atoms: C_1  and  C_3
REMARK    2  A    between atoms: C_3  and  C_25
REMARK    3  A    between atoms: C_6  and  C_12
REMARK    4  A    between atoms: C_11  and  C_14
REMARK    5  A    between atoms: C_19  and  O_23
REMARK    6  A    between atoms: C_26  and  C_28
REMARK    7  A    between atoms: C_27  and  C_31
REMARK    8  A    between atoms: C_29  and  C_31
REMARK    9  A    between atoms: C_29  and  C_42
REMARK   10  A    between atoms: C_33  and  O_43
REMARK   11  A    between atoms: C_35  and  O_45
REMARK   12  A    between atoms: C_37  and  C_41
REMARK   13  A    between atoms: O_45  and  C_47
REMARK                            x       y       z     vdW  Elec       q    Type
REMARK                         _______ _______ _______ _____ _____    ______ ____
ROOT
ATOM      1  C   UNL     1     -59.728 -57.838 -58.765  0.00  0.00    +0.000 C 
ENDROOT
BRANCH   1   2
ATOM      2  C   UNL     1     -60.084 -57.450 -57.581  0.00  0.00    +0.000 C 
ATOM      3  C   UNL     1     -59.131 -57.570 -56.432  0.00  0.00    +0.000 C 
ATOM      4  O   UNL     1     -63.584 -56.709 -58.016  0.00  0.00    +0.000 OA
ATOM      5  O   UNL     1     -65.857 -56.406 -57.676  0.00  0.00    +0.000 OA
ATOM      6  C   UNL     1     -64.243 -55.742 -56.006  0.00  0.00    +0.000 C 
ATOM      7  C   UNL     1     -62.962 -55.805 -55.983  0.00  0.00    +0.000 C 
ATOM      8  C   UNL     1     -64.704 -56.302 -57.298  0.00  0.00    +0.000 C 
ATOM      9  C   UNL     1     -62.525 -56.352 -57.187  0.00  0.00    +0.000 C 
ATOM     10  C   UNL     1     -61.359 -56.878 -57.377  0.00  0.00    +0.000 C 
BRANCH   6  12
ATOM     11  C   UNL     1     -65.706 -54.814 -54.055  0.00  0.00    +0.000 C 
ATOM     12  C   UNL     1     -65.030 -55.237 -54.954  0.00  0.00    +0.000 C 
BRANCH  11  14
ATOM     13  O   UNL     1     -67.268 -55.409 -52.356  0.00  0.00    +0.000 OA
ATOM     14  C   UNL     1     -66.531 -54.312 -52.967  0.00  0.00    +0.000 C 
ATOM     15  C   UNL     1     -66.273 -54.811 -51.530  0.00  0.00    +0.000 C 
ATOM     16  C   UNL     1     -67.309 -52.962 -53.150  0.00  0.00    +0.000 C 
ATOM     17  C   UNL     1     -66.842 -54.051 -50.463  0.00  0.00    +0.000 C 
ATOM     18  C   UNL     1     -67.785 -52.558 -51.824  0.00  0.00    +0.000 C 
ATOM     19  C   UNL     1     -67.655 -52.905 -50.465  0.00  0.00    +0.000 C 
ATOM     20  C   UNL     1     -65.132 -55.761 -51.158  0.00  0.00    +0.000 C 
ATOM     21  C   UNL     1     -66.267 -51.948 -53.691  0.00  0.00    +0.000 C 
ATOM     22  C   UNL     1     -68.448 -53.242 -54.155  0.00  0.00    +0.000 C 
BRANCH  19  23
ATOM     23  O   UNL     1     -67.588 -51.953 -49.492  0.00  0.00    +0.000 OA
ATOM     24  H   UNL     1     -66.744 -51.979 -49.006  0.00  0.00    +0.000 HD
ENDBRANCH  19  23
ENDBRANCH  11  14
ENDBRANCH   6  12
ENDBRANCH   1   2
BRANCH   1  25
ATOM     25  C   UNL     1     -59.308 -58.295 -60.167  0.00  0.00    +0.000 C 
ATOM     26  C   UNL     1     -58.973 -58.653 -61.262  0.00  0.00    +0.000 C 
BRANCH  26  28
ATOM     27  C   UNL     1     -58.200 -59.462 -63.754  0.00  0.00    +0.000 C 
ATOM     28  C   UNL     1     -58.538 -59.109 -62.658  0.00  0.00    +0.000 C 
BRANCH  27  29
ATOM     29  C   UNL     1     -57.771 -59.907 -65.158  0.00  0.00    +0.000 C 
BRANCH  29  30
ATOM     30  C   UNL     1     -57.401 -60.277 -66.343  0.00  0.00    +0.000 C 
ATOM     31  C   UNL     1     -58.053 -61.451 -67.008  0.00  0.00    +0.000 C 
BRANCH  30  33
ATOM     32  C   UNL     1     -55.431 -59.033 -67.543  0.00  0.00    +0.000 C 
ATOM     33  C   UNL     1     -56.336 -59.603 -66.993  0.00  0.00    +0.000 C 
BRANCH  32  39
ATOM     34  C   UNL     1     -54.674 -57.312 -69.200  0.00  0.00    +0.000 C 
ATOM     35  C   UNL     1     -52.993 -58.800 -67.886  0.00  0.00    +0.000 C 
ATOM     36  C   UNL     1     -53.433 -56.581 -69.491  0.00  0.00    +0.000 C 
ATOM     37  C   UNL     1     -52.061 -56.637 -69.171  0.00  0.00    +0.000 C 
ATOM     38  C   UNL     1     -52.051 -57.795 -68.367  0.00  0.00    +0.000 C 
ATOM     39  C   UNL     1     -54.440 -58.414 -68.151  0.00  0.00    +0.000 C 
ATOM     40  C   UNL     1     -55.714 -56.291 -68.645  0.00  0.00    +0.000 C 
ATOM     41  C   UNL     1     -55.217 -57.969 -70.497  0.00  0.00    +0.000 C 
ATOM     42  C   UNL     1     -52.680 -60.182 -68.469  0.00  0.00    +0.000 C 
BRANCH  35  43
ATOM     43  O   UNL     1     -52.798 -58.938 -66.496  0.00  0.00    +0.000 OA
ATOM     44  H   UNL     1     -52.495 -58.043 -66.254  0.00  0.00    +0.000 HD
ENDBRANCH  35  43
BRANCH  37  45
ATOM     45  O   UNL     1     -51.124 -56.477 -70.185  0.00  0.00    +0.000 OA
BRANCH  45  47
ATOM     46  O   UNL     1     -51.106 -54.458 -71.378  0.00  0.00    +0.000 OA
ATOM     47  C   UNL     1     -50.902 -55.158 -70.404  0.00  0.00    +0.000 C 
ATOM     48  C   UNL     1     -50.288 -54.445 -69.251  0.00  0.00    +0.000 C 
ENDBRANCH  45  47
ENDBRANCH  37  45
ENDBRANCH  32  39
ENDBRANCH  30  33
ENDBRANCH  29  30
ENDBRANCH  27  29
ENDBRANCH  26  28
ENDBRANCH   1  25
TORSDOF 13
ENDMDL
MODEL 5
REMARK VINA RESULT:      -6.3     13.229     27.030
REMARK  Name = 5289155_Peridinin.pdbqt.pdb
REMARK  13 active torsions:
REMARK  status: ('A' for Active; 'I' for Inactive)
REMARK    1  A    between atoms: C_1  and  C_3
REMARK    2  A    between atoms: C_3  and  C_25
REMARK    3  A    between atoms: C_6  and  C_12
REMARK    4  A    between atoms: C_11  and  C_14
REMARK    5  A    between atoms: C_19  and  O_23
REMARK    6  A    between atoms: C_26  and  C_28
REMARK    7  A    between atoms: C_27  and  C_31
REMARK    8  A    between atoms: C_29  and  C_31
REMARK    9  A    between atoms: C_29  and  C_42
REMARK   10  A    between atoms: C_33  and  O_43
REMARK   11  A    between atoms: C_35  and  O_45
REMARK   12  A    between atoms: C_37  and  C_41
REMARK   13  A    between atoms: O_45  and  C_47
REMARK                            x       y       z     vdW  Elec       q    Type
REMARK                         _______ _______ _______ _____ _____    ______ ____
ROOT
ATOM      1  C   UNL     1     -60.858 -44.527 -48.431  0.00  0.00    +0.000 C 
ENDROOT
BRANCH   1   2
ATOM      2  C   UNL     1     -60.941 -44.315 -49.707  0.00  0.00    +0.000 C 
ATOM      3  C   UNL     1     -60.055 -43.300 -50.360  0.00  0.00    +0.000 C 
ATOM      4  O   UNL     1     -63.823 -46.267 -50.641  0.00  0.00    +0.000 OA
ATOM      5  O   UNL     1     -65.731 -47.064 -51.690  0.00  0.00    +0.000 OA
ATOM      6  C   UNL     1     -63.884 -46.168 -52.964  0.00  0.00    +0.000 C 
ATOM      7  C   UNL     1     -62.750 -45.689 -52.602  0.00  0.00    +0.000 C 
ATOM      8  C   UNL     1     -64.619 -46.568 -51.741  0.00  0.00    +0.000 C 
ATOM      9  C   UNL     1     -62.662 -45.759 -51.215  0.00  0.00    +0.000 C 
ATOM     10  C   UNL     1     -61.841 -45.070 -50.493  0.00  0.00    +0.000 C 
BRANCH   6  12
ATOM     11  C   UNL     1     -64.675 -46.338 -55.444  0.00  0.00    +0.000 C 
ATOM     12  C   UNL     1     -64.316 -46.260 -54.300  0.00  0.00    +0.000 C 
BRANCH  11  14
ATOM     13  O   UNL     1     -64.751 -45.202 -57.539  0.00  0.00    +0.000 OA
ATOM     14  C   UNL     1     -65.100 -46.427 -56.832  0.00  0.00    +0.000 C 
ATOM     15  C   UNL     1     -64.041 -46.367 -57.953  0.00  0.00    +0.000 C 
ATOM     16  C   UNL     1     -66.497 -47.056 -57.172  0.00  0.00    +0.000 C 
ATOM     17  C   UNL     1     -64.439 -46.808 -59.252  0.00  0.00    +0.000 C 
ATOM     18  C   UNL     1     -66.519 -47.297 -58.618  0.00  0.00    +0.000 C 
ATOM     19  C   UNL     1     -65.670 -47.277 -59.740  0.00  0.00    +0.000 C 
ATOM     20  C   UNL     1     -62.534 -46.294 -57.689  0.00  0.00    +0.000 C 
ATOM     21  C   UNL     1     -66.553 -48.396 -56.392  0.00  0.00    +0.000 C 
ATOM     22  C   UNL     1     -67.563 -46.044 -56.699  0.00  0.00    +0.000 C 
BRANCH  19  23
ATOM     23  O   UNL     1     -65.762 -48.222 -60.718  0.00  0.00    +0.000 OA
ATOM     24  H   UNL     1     -64.905 -48.396 -61.147  0.00  0.00    +0.000 HD
ENDBRANCH  19  23
ENDBRANCH  11  14
ENDBRANCH   6  12
ENDBRANCH   1   2
BRANCH   1  25
ATOM     25  C   UNL     1     -60.760 -44.777 -46.922  0.00  0.00    +0.000 C 
ATOM     26  C   UNL     1     -60.689 -44.974 -45.740  0.00  0.00    +0.000 C 
BRANCH  26  28
ATOM     27  C   UNL     1     -60.546 -45.427 -43.051  0.00  0.00    +0.000 C 
ATOM     28  C   UNL     1     -60.605 -45.227 -44.232  0.00  0.00    +0.000 C 
BRANCH  27  29
ATOM     29  C   UNL     1     -60.477 -45.683 -41.540  0.00  0.00    +0.000 C 
BRANCH  29  30
ATOM     30  C   UNL     1     -60.429 -45.898 -40.263  0.00  0.00    +0.000 C 
ATOM     31  C   UNL     1     -59.112 -45.928 -39.549  0.00  0.00    +0.000 C 
BRANCH  30  33
ATOM     32  C   UNL     1     -62.635 -46.383 -38.935  0.00  0.00    +0.000 C 
ATOM     33  C   UNL     1     -61.624 -46.161 -39.546  0.00  0.00    +0.000 C 
BRANCH  32  39
ATOM     34  C   UNL     1     -65.137 -46.539 -38.919  0.00  0.00    +0.000 C 
ATOM     35  C   UNL     1     -63.713 -46.934 -36.778  0.00  0.00    +0.000 C 
ATOM     36  C   UNL     1     -66.165 -47.139 -38.058  0.00  0.00    +0.000 C 
ATOM     37  C   UNL     1     -66.288 -47.689 -36.765  0.00  0.00    +0.000 C 
ATOM     38  C   UNL     1     -64.969 -47.501 -36.301  0.00  0.00    +0.000 C 
ATOM     39  C   UNL     1     -63.746 -46.620 -38.266  0.00  0.00    +0.000 C 
ATOM     40  C   UNL     1     -65.116 -47.328 -40.264  0.00  0.00    +0.000 C 
ATOM     41  C   UNL     1     -65.474 -45.047 -39.185  0.00  0.00    +0.000 C 
ATOM     42  C   UNL     1     -63.315 -45.697 -35.966  0.00  0.00    +0.000 C 
BRANCH  35  43
ATOM     43  O   UNL     1     -62.696 -47.878 -36.527  0.00  0.00    +0.000 OA
ATOM     44  H   UNL     1     -62.052 -47.340 -36.029  0.00  0.00    +0.000 HD
ENDBRANCH  35  43
BRANCH  37  45
ATOM     45  O   UNL     1     -67.370 -47.322 -35.975  0.00  0.00    +0.000 OA
BRANCH  45  47
ATOM     46  O   UNL     1     -67.743 -49.519 -35.243  0.00  0.00    +0.000 OA
ATOM     47  C   UNL     1     -67.657 -48.314 -35.097  0.00  0.00    +0.000 C 
ATOM     48  C   UNL     1     -67.924 -47.842 -33.711  0.00  0.00    +0.000 C 
ENDBRANCH  45  47
ENDBRANCH  37  45
ENDBRANCH  32  39
ENDBRANCH  30  33
ENDBRANCH  29  30
ENDBRANCH  27  29
ENDBRANCH  26  28
ENDBRANCH   1  25
TORSDOF 13
ENDMDL
MODEL 6
REMARK VINA RESULT:      -6.3      9.021     11.490
REMARK  Name = 5289155_Peridinin.pdbqt.pdb
REMARK  13 active torsions:
REMARK  status: ('A' for Active; 'I' for Inactive)
REMARK    1  A    between atoms: C_1  and  C_3
REMARK    2  A    between atoms: C_3  and  C_25
REMARK    3  A    between atoms: C_6  and  C_12
REMARK    4  A    between atoms: C_11  and  C_14
REMARK    5  A    between atoms: C_19  and  O_23
REMARK    6  A    between atoms: C_26  and  C_28
REMARK    7  A    between atoms: C_27  and  C_31
REMARK    8  A    between atoms: C_29  and  C_31
REMARK    9  A    between atoms: C_29  and  C_42
REMARK   10  A    between atoms: C_33  and  O_43
REMARK   11  A    between atoms: C_35  and  O_45
REMARK   12  A    between atoms: C_37  and  C_41
REMARK   13  A    between atoms: O_45  and  C_47
REMARK                            x       y       z     vdW  Elec       q    Type
REMARK                         _______ _______ _______ _____ _____    ______ ____
ROOT
ATOM      1  C   UNL     1     -68.188 -57.494 -34.210  0.00  0.00    +0.000 C 
ENDROOT
BRANCH   1   2
ATOM      2  C   UNL     1     -68.282 -57.788 -32.952  0.00  0.00    +0.000 C 
ATOM      3  C   UNL     1     -67.167 -58.511 -32.261  0.00  0.00    +0.000 C 
ATOM      4  O   UNL     1     -71.686 -56.882 -32.189  0.00  0.00    +0.000 OA
ATOM      5  O   UNL     1     -73.811 -56.774 -31.269  0.00  0.00    +0.000 OA
ATOM      6  C   UNL     1     -71.864 -57.117 -29.881  0.00  0.00    +0.000 C 
ATOM      7  C   UNL     1     -70.616 -57.200 -30.167  0.00  0.00    +0.000 C 
ATOM      8  C   UNL     1     -72.607 -56.902 -31.146  0.00  0.00    +0.000 C 
ATOM      9  C   UNL     1     -70.464 -57.033 -31.541  0.00  0.00    +0.000 C 
ATOM     10  C   UNL     1     -69.423 -57.394 -32.217  0.00  0.00    +0.000 C 
BRANCH   6  12
ATOM     11  C   UNL     1     -72.828 -57.335 -27.467  0.00  0.00    +0.000 C 
ATOM     12  C   UNL     1     -72.389 -57.235 -28.581  0.00  0.00    +0.000 C 
BRANCH  11  14
ATOM     13  O   UNL     1     -73.496 -58.865 -25.766  0.00  0.00    +0.000 OA
ATOM     14  C   UNL     1     -73.349 -57.458 -26.115  0.00  0.00    +0.000 C 
ATOM     15  C   UNL     1     -72.496 -58.158 -25.036  0.00  0.00    +0.000 C 
ATOM     16  C   UNL     1     -74.493 -56.496 -25.639  0.00  0.00    +0.000 C 
ATOM     17  C   UNL     1     -72.867 -57.951 -23.673  0.00  0.00    +0.000 C 
ATOM     18  C   UNL     1     -74.593 -56.635 -24.183  0.00  0.00    +0.000 C 
ATOM     19  C   UNL     1     -73.924 -57.227 -23.095  0.00  0.00    +0.000 C 
ATOM     20  C   UNL     1     -71.075 -58.673 -25.286  0.00  0.00    +0.000 C 
ATOM     21  C   UNL     1     -74.026 -55.067 -26.022  0.00  0.00    +0.000 C 
ATOM     22  C   UNL     1     -75.772 -56.928 -26.389  0.00  0.00    +0.000 C 
BRANCH  19  23
ATOM     23  O   UNL     1     -73.809 -56.588 -21.898  0.00  0.00    +0.000 OA
ATOM     24  H   UNL     1     -72.881 -56.456 -21.635  0.00  0.00    +0.000 HD
ENDBRANCH  19  23
ENDBRANCH  11  14
ENDBRANCH   6  12
ENDBRANCH   1   2
BRANCH   1  25
ATOM     25  C   UNL     1     -68.075 -57.146 -35.699  0.00  0.00    +0.000 C 
ATOM     26  C   UNL     1     -67.981 -56.874 -36.864  0.00  0.00    +0.000 C 
BRANCH  26  28
ATOM     27  C   UNL     1     -67.755 -56.264 -39.517  0.00  0.00    +0.000 C 
ATOM     28  C   UNL     1     -67.853 -56.529 -38.351  0.00  0.00    +0.000 C 
BRANCH  27  29
ATOM     29  C   UNL     1     -67.628 -55.932 -41.009  0.00  0.00    +0.000 C 
BRANCH  29  30
ATOM     30  C   UNL     1     -67.523 -55.662 -42.271  0.00  0.00    +0.000 C 
ATOM     31  C   UNL     1     -68.498 -54.733 -42.930  0.00  0.00    +0.000 C 
BRANCH  30  33
ATOM     32  C   UNL     1     -65.664 -56.826 -43.705  0.00  0.00    +0.000 C 
ATOM     33  C   UNL     1     -66.517 -56.290 -43.048  0.00  0.00    +0.000 C 
BRANCH  32  39
ATOM     34  C   UNL     1     -65.035 -58.070 -45.788  0.00  0.00    +0.000 C 
ATOM     35  C   UNL     1     -63.304 -57.532 -43.922  0.00  0.00    +0.000 C 
ATOM     36  C   UNL     1     -63.797 -58.376 -46.518  0.00  0.00    +0.000 C 
ATOM     37  C   UNL     1     -62.402 -58.339 -46.317  0.00  0.00    +0.000 C 
ATOM     38  C   UNL     1     -62.366 -57.889 -44.981  0.00  0.00    +0.000 C 
ATOM     39  C   UNL     1     -64.733 -57.416 -44.428  0.00  0.00    +0.000 C 
ATOM     40  C   UNL     1     -65.874 -57.082 -46.655  0.00  0.00    +0.000 C 
ATOM     41  C   UNL     1     -65.841 -59.374 -45.542  0.00  0.00    +0.000 C 
ATOM     42  C   UNL     1     -63.216 -58.510 -42.747  0.00  0.00    +0.000 C 
BRANCH  35  43
ATOM     43  O   UNL     1     -62.897 -56.289 -43.393  0.00  0.00    +0.000 OA
ATOM     44  H   UNL     1     -62.420 -55.904 -44.152  0.00  0.00    +0.000 HD
ENDBRANCH  35  43
BRANCH  37  45
ATOM     45  O   UNL     1     -61.634 -59.426 -46.715  0.00  0.00    +0.000 OA
BRANCH  45  47
ATOM     46  O   UNL     1     -60.988 -58.450 -48.747  0.00  0.00    +0.000 OA
ATOM     47  C   UNL     1     -61.393 -59.359 -48.047  0.00  0.00    +0.000 C 
ATOM     48  C   UNL     1     -61.689 -60.617 -48.783  0.00  0.00    +0.000 C 
ENDBRANCH  45  47
ENDBRANCH  37  45
ENDBRANCH  32  39
ENDBRANCH  30  33
ENDBRANCH  29  30
ENDBRANCH  27  29
ENDBRANCH  26  28
ENDBRANCH   1  25
TORSDOF 13
ENDMDL
MODEL 7
REMARK VINA RESULT:      -6.3     12.542     22.692
REMARK  Name = 5289155_Peridinin.pdbqt.pdb
REMARK  13 active torsions:
REMARK  status: ('A' for Active; 'I' for Inactive)
REMARK    1  A    between atoms: C_1  and  C_3
REMARK    2  A    between atoms: C_3  and  C_25
REMARK    3  A    between atoms: C_6  and  C_12
REMARK    4  A    between atoms: C_11  and  C_14
REMARK    5  A    between atoms: C_19  and  O_23
REMARK    6  A    between atoms: C_26  and  C_28
REMARK    7  A    between atoms: C_27  and  C_31
REMARK    8  A    between atoms: C_29  and  C_31
REMARK    9  A    between atoms: C_29  and  C_42
REMARK   10  A    between atoms: C_33  and  O_43
REMARK   11  A    between atoms: C_35  and  O_45
REMARK   12  A    between atoms: C_37  and  C_41
REMARK   13  A    between atoms: O_45  and  C_47
REMARK                            x       y       z     vdW  Elec       q    Type
REMARK                         _______ _______ _______ _____ _____    ______ ____
ROOT
ATOM      1  C   UNL     1     -63.990 -57.098 -43.577  0.00  0.00    +0.000 C 
ENDROOT
BRANCH   1   2
ATOM      2  C   UNL     1     -62.944 -57.294 -44.317  0.00  0.00    +0.000 C 
ATOM      3  C   UNL     1     -61.616 -57.576 -43.686  0.00  0.00    +0.000 C 
ATOM      4  O   UNL     1     -64.163 -56.509 -47.617  0.00  0.00    +0.000 OA
ATOM      5  O   UNL     1     -64.333 -55.832 -49.828  0.00  0.00    +0.000 OA
ATOM      6  C   UNL     1     -62.428 -57.099 -49.050  0.00  0.00    +0.000 C 
ATOM      7  C   UNL     1     -62.134 -57.576 -47.896  0.00  0.00    +0.000 C 
ATOM      8  C   UNL     1     -63.733 -56.406 -48.936  0.00  0.00    +0.000 C 
ATOM      9  C   UNL     1     -63.166 -57.270 -47.014  0.00  0.00    +0.000 C 
ATOM     10  C   UNL     1     -63.062 -57.280 -45.725  0.00  0.00    +0.000 C 
BRANCH   6  12
ATOM     11  C   UNL     1     -60.911 -57.320 -51.161  0.00  0.00    +0.000 C 
ATOM     12  C   UNL     1     -61.613 -57.222 -50.190  0.00  0.00    +0.000 C 
BRANCH  11  14
ATOM     13  O   UNL     1     -60.390 -58.633 -53.080  0.00  0.00    +0.000 OA
ATOM     14  C   UNL     1     -60.058 -57.427 -52.334  0.00  0.00    +0.000 C 
ATOM     15  C   UNL     1     -60.697 -57.407 -53.738  0.00  0.00    +0.000 C 
ATOM     16  C   UNL     1     -58.534 -57.076 -52.214  0.00  0.00    +0.000 C 
ATOM     17  C   UNL     1     -59.832 -57.157 -54.847  0.00  0.00    +0.000 C 
ATOM     18  C   UNL     1     -58.008 -56.972 -53.578  0.00  0.00    +0.000 C 
ATOM     19  C   UNL     1     -58.444 -56.949 -54.917  0.00  0.00    +0.000 C 
ATOM     20  C   UNL     1     -62.195 -57.201 -53.982  0.00  0.00    +0.000 C 
ATOM     21  C   UNL     1     -58.476 -55.700 -51.498  0.00  0.00    +0.000 C 
ATOM     22  C   UNL     1     -57.885 -58.207 -51.387  0.00  0.00    +0.000 C 
BRANCH  19  23
ATOM     23  O   UNL     1     -57.870 -56.124 -55.837  0.00  0.00    +0.000 OA
ATOM     24  H   UNL     1     -58.529 -55.682 -56.401  0.00  0.00    +0.000 HD
ENDBRANCH  19  23
ENDBRANCH  11  14
ENDBRANCH   6  12
ENDBRANCH   1   2
BRANCH   1  25
ATOM     25  C   UNL     1     -65.226 -56.866 -42.701  0.00  0.00    +0.000 C 
ATOM     26  C   UNL     1     -66.197 -56.688 -42.019  0.00  0.00    +0.000 C 
BRANCH  26  28
ATOM     27  C   UNL     1     -68.411 -56.296 -40.468  0.00  0.00    +0.000 C 
ATOM     28  C   UNL     1     -67.440 -56.466 -41.152  0.00  0.00    +0.000 C 
BRANCH  27  29
ATOM     29  C   UNL     1     -69.651 -56.084 -39.591  0.00  0.00    +0.000 C 
BRANCH  29  30
ATOM     30  C   UNL     1     -70.694 -55.895 -38.846  0.00  0.00    +0.000 C 
ATOM     31  C   UNL     1     -71.985 -55.433 -39.453  0.00  0.00    +0.000 C 
BRANCH  30  33
ATOM     32  C   UNL     1     -70.526 -56.225 -36.252  0.00  0.00    +0.000 C 
ATOM     33  C   UNL     1     -70.602 -56.072 -37.442  0.00  0.00    +0.000 C 
BRANCH  32  39
ATOM     34  C   UNL     1     -69.375 -57.304 -34.305  0.00  0.00    +0.000 C 
ATOM     35  C   UNL     1     -71.436 -55.746 -34.003  0.00  0.00    +0.000 C 
ATOM     36  C   UNL     1     -69.296 -57.084 -32.854  0.00  0.00    +0.000 C 
ATOM     37  C   UNL     1     -69.964 -56.360 -31.846  0.00  0.00    +0.000 C 
ATOM     38  C   UNL     1     -70.981 -55.761 -32.617  0.00  0.00    +0.000 C 
ATOM     39  C   UNL     1     -70.440 -56.397 -34.949  0.00  0.00    +0.000 C 
ATOM     40  C   UNL     1     -67.981 -56.969 -34.918  0.00  0.00    +0.000 C 
ATOM     41  C   UNL     1     -69.741 -58.784 -34.597  0.00  0.00    +0.000 C 
ATOM     42  C   UNL     1     -72.821 -56.385 -34.143  0.00  0.00    +0.000 C 
BRANCH  35  43
ATOM     43  O   UNL     1     -71.618 -54.398 -34.378  0.00  0.00    +0.000 OA
ATOM     44  H   UNL     1     -70.832 -54.246 -34.936  0.00  0.00    +0.000 HD
ENDBRANCH  35  43
BRANCH  37  45
ATOM     45  O   UNL     1     -70.271 -56.994 -30.648  0.00  0.00    +0.000 OA
BRANCH  45  47
ATOM     46  O   UNL     1     -69.866 -54.997 -29.486  0.00  0.00    +0.000 OA
ATOM     47  C   UNL     1     -70.403 -56.076 -29.660  0.00  0.00    +0.000 C 
ATOM     48  C   UNL     1     -71.366 -56.462 -28.594  0.00  0.00    +0.000 C 
ENDBRANCH  45  47
ENDBRANCH  37  45
ENDBRANCH  32  39
ENDBRANCH  30  33
ENDBRANCH  29  30
ENDBRANCH  27  29
ENDBRANCH  26  28
ENDBRANCH   1  25
TORSDOF 13
ENDMDL
MODEL 8
REMARK VINA RESULT:      -6.2      7.498     17.841
REMARK  Name = 5289155_Peridinin.pdbqt.pdb
REMARK  13 active torsions:
REMARK  status: ('A' for Active; 'I' for Inactive)
REMARK    1  A    between atoms: C_1  and  C_3
REMARK    2  A    between atoms: C_3  and  C_25
REMARK    3  A    between atoms: C_6  and  C_12
REMARK    4  A    between atoms: C_11  and  C_14
REMARK    5  A    between atoms: C_19  and  O_23
REMARK    6  A    between atoms: C_26  and  C_28
REMARK    7  A    between atoms: C_27  and  C_31
REMARK    8  A    between atoms: C_29  and  C_31
REMARK    9  A    between atoms: C_29  and  C_42
REMARK   10  A    between atoms: C_33  and  O_43
REMARK   11  A    between atoms: C_35  and  O_45
REMARK   12  A    between atoms: C_37  and  C_41
REMARK   13  A    between atoms: O_45  and  C_47
REMARK                            x       y       z     vdW  Elec       q    Type
REMARK                         _______ _______ _______ _____ _____    ______ ____
ROOT
ATOM      1  C   UNL     1     -72.396 -58.421 -25.955  0.00  0.00    +0.000 C 
ENDROOT
BRANCH   1   2
ATOM      2  C   UNL     1     -72.054 -58.996 -27.065  0.00  0.00    +0.000 C 
ATOM      3  C   UNL     1     -72.009 -60.490 -27.156  0.00  0.00    +0.000 C 
ATOM      4  O   UNL     1     -70.995 -56.213 -29.096  0.00  0.00    +0.000 OA
ATOM      5  O   UNL     1     -69.930 -54.872 -30.658  0.00  0.00    +0.000 OA
ATOM      6  C   UNL     1     -70.623 -57.120 -31.205  0.00  0.00    +0.000 C 
ATOM      7  C   UNL     1     -71.223 -58.020 -30.515  0.00  0.00    +0.000 C 
ATOM      8  C   UNL     1     -70.455 -55.925 -30.345  0.00  0.00    +0.000 C 
ATOM      9  C   UNL     1     -71.492 -57.503 -29.251  0.00  0.00    +0.000 C 
ATOM     10  C   UNL     1     -71.760 -58.215 -28.205  0.00  0.00    +0.000 C 
BRANCH   6  12
ATOM     11  C   UNL     1     -69.841 -57.449 -33.672  0.00  0.00    +0.000 C 
ATOM     12  C   UNL     1     -70.202 -57.293 -32.537  0.00  0.00    +0.000 C 
BRANCH  11  14
ATOM     13  O   UNL     1     -70.505 -58.149 -35.852  0.00  0.00    +0.000 OA
ATOM     14  C   UNL     1     -69.401 -57.649 -35.044  0.00  0.00    +0.000 C 
ATOM     15  C   UNL     1     -70.060 -56.834 -36.176  0.00  0.00    +0.000 C 
ATOM     16  C   UNL     1     -67.992 -58.282 -35.317  0.00  0.00    +0.000 C 
ATOM     17  C   UNL     1     -69.379 -56.789 -37.430  0.00  0.00    +0.000 C 
ATOM     18  C   UNL     1     -67.696 -58.076 -36.737  0.00  0.00    +0.000 C 
ATOM     19  C   UNL     1     -68.188 -57.394 -37.866  0.00  0.00    +0.000 C 
ATOM     20  C   UNL     1     -71.116 -55.752 -35.934  0.00  0.00    +0.000 C 
ATOM     21  C   UNL     1     -66.997 -57.489 -34.429  0.00  0.00    +0.000 C 
ATOM     22  C   UNL     1     -68.093 -59.771 -34.917  0.00  0.00    +0.000 C 
BRANCH  19  23
ATOM     23  O   UNL     1     -67.348 -56.804 -38.762  0.00  0.00    +0.000 OA
ATOM     24  H   UNL     1     -67.692 -56.840 -39.673  0.00  0.00    +0.000 HD
ENDBRANCH  19  23
ENDBRANCH  11  14
ENDBRANCH   6  12
ENDBRANCH   1   2
BRANCH   1  25
ATOM     25  C   UNL     1     -72.800 -57.742 -24.642  0.00  0.00    +0.000 C 
ATOM     26  C   UNL     1     -73.122 -57.210 -23.615  0.00  0.00    +0.000 C 
BRANCH  26  28
ATOM     27  C   UNL     1     -73.873 -56.003 -21.283  0.00  0.00    +0.000 C 
ATOM     28  C   UNL     1     -73.540 -56.533 -22.306  0.00  0.00    +0.000 C 
BRANCH  27  29
ATOM     29  C   UNL     1     -74.305 -55.322 -19.978  0.00  0.00    +0.000 C 
BRANCH  29  30
ATOM     30  C   UNL     1     -74.660 -54.747 -18.873  0.00  0.00    +0.000 C 
ATOM     31  C   UNL     1     -73.950 -53.514 -18.400  0.00  0.00    +0.000 C 
BRANCH  30  33
ATOM     32  C   UNL     1     -76.560 -55.796 -17.405  0.00  0.00    +0.000 C 
ATOM     33  C   UNL     1     -75.687 -55.315 -18.078  0.00  0.00    +0.000 C 
BRANCH  32  39
ATOM     34  C   UNL     1     -78.970 -56.445 -17.172  0.00  0.00    +0.000 C 
ATOM     35  C   UNL     1     -77.248 -56.805 -15.255  0.00  0.00    +0.000 C 
ATOM     36  C   UNL     1     -79.758 -57.336 -16.309  0.00  0.00    +0.000 C 
ATOM     37  C   UNL     1     -79.620 -58.050 -15.101  0.00  0.00    +0.000 C 
ATOM     38  C   UNL     1     -78.312 -57.662 -14.744  0.00  0.00    +0.000 C 
ATOM     39  C   UNL     1     -77.518 -56.327 -16.673  0.00  0.00    +0.000 C 
ATOM     40  C   UNL     1     -78.968 -57.047 -18.610  0.00  0.00    +0.000 C 
ATOM     41  C   UNL     1     -79.604 -55.028 -17.190  0.00  0.00    +0.000 C 
ATOM     42  C   UNL     1     -76.988 -55.621 -14.318  0.00  0.00    +0.000 C 
BRANCH  35  43
ATOM     43  O   UNL     1     -76.052 -57.553 -15.238  0.00  0.00    +0.000 OA
ATOM     44  H   UNL     1     -75.393 -56.857 -15.053  0.00  0.00    +0.000 HD
ENDBRANCH  35  43
BRANCH  37  45
ATOM     45  O   UNL     1     -80.647 -58.003 -14.167  0.00  0.00    +0.000 OA
BRANCH  45  47
ATOM     46  O   UNL     1     -80.375 -59.964 -12.909  0.00  0.00    +0.000 OA
ATOM     47  C   UNL     1     -80.929 -59.254 -13.728  0.00  0.00    +0.000 C 
ATOM     48  C   UNL     1     -82.121 -59.871 -14.371  0.00  0.00    +0.000 C 
ENDBRANCH  45  47
ENDBRANCH  37  45
ENDBRANCH  32  39
ENDBRANCH  30  33
ENDBRANCH  29  30
ENDBRANCH  27  29
ENDBRANCH  26  28
ENDBRANCH   1  25
TORSDOF 13
ENDMDL
MODEL 9
REMARK VINA RESULT:      -6.2      7.165     17.172
REMARK  Name = 5289155_Peridinin.pdbqt.pdb
REMARK  13 active torsions:
REMARK  status: ('A' for Active; 'I' for Inactive)
REMARK    1  A    between atoms: C_1  and  C_3
REMARK    2  A    between atoms: C_3  and  C_25
REMARK    3  A    between atoms: C_6  and  C_12
REMARK    4  A    between atoms: C_11  and  C_14
REMARK    5  A    between atoms: C_19  and  O_23
REMARK    6  A    between atoms: C_26  and  C_28
REMARK    7  A    between atoms: C_27  and  C_31
REMARK    8  A    between atoms: C_29  and  C_31
REMARK    9  A    between atoms: C_29  and  C_42
REMARK   10  A    between atoms: C_33  and  O_43
REMARK   11  A    between atoms: C_35  and  O_45
REMARK   12  A    between atoms: C_37  and  C_41
REMARK   13  A    between atoms: O_45  and  C_47
REMARK                            x       y       z     vdW  Elec       q    Type
REMARK                         _______ _______ _______ _____ _____    ______ ____
ROOT
ATOM      1  C   UNL     1     -72.525 -55.911 -31.527  0.00  0.00    +0.000 C 
ENDROOT
BRANCH   1   2
ATOM      2  C   UNL     1     -72.512 -55.577 -32.779  0.00  0.00    +0.000 C 
ATOM      3  C   UNL     1     -73.618 -54.743 -33.348  0.00  0.00    +0.000 C 
ATOM      4  O   UNL     1     -69.736 -57.480 -34.069  0.00  0.00    +0.000 OA
ATOM      5  O   UNL     1     -68.305 -58.688 -35.435  0.00  0.00    +0.000 OA
ATOM      6  C   UNL     1     -69.463 -56.732 -36.254  0.00  0.00    +0.000 C 
ATOM      7  C   UNL     1     -70.280 -55.923 -35.685  0.00  0.00    +0.000 C 
ATOM      8  C   UNL     1     -69.069 -57.756 -35.258  0.00  0.00    +0.000 C 
ATOM      9  C   UNL     1     -70.446 -56.320 -34.361  0.00  0.00    +0.000 C 
ATOM     10  C   UNL     1     -71.433 -55.967 -33.604  0.00  0.00    +0.000 C 
BRANCH   6  12
ATOM     11  C   UNL     1     -68.713 -56.560 -38.747  0.00  0.00    +0.000 C 
ATOM     12  C   UNL     1     -69.058 -56.634 -37.598  0.00  0.00    +0.000 C 
BRANCH  11  14
ATOM     13  O   UNL     1     -68.855 -55.291 -40.759  0.00  0.00    +0.000 OA
ATOM     14  C   UNL     1     -68.292 -56.482 -40.137  0.00  0.00    +0.000 C 
ATOM     15  C   UNL     1     -67.438 -55.284 -40.603  0.00  0.00    +0.000 C 
ATOM     16  C   UNL     1     -68.272 -57.784 -41.011  0.00  0.00    +0.000 C 
ATOM     17  C   UNL     1     -66.756 -55.413 -41.850  0.00  0.00    +0.000 C 
ATOM     18  C   UNL     1     -67.528 -57.469 -42.234  0.00  0.00    +0.000 C 
ATOM     19  C   UNL     1     -66.734 -56.452 -42.797  0.00  0.00    +0.000 C 
ATOM     20  C   UNL     1     -66.931 -54.190 -39.658  0.00  0.00    +0.000 C 
ATOM     21  C   UNL     1     -67.514 -58.843 -40.167  0.00  0.00    +0.000 C 
ATOM     22  C   UNL     1     -69.746 -58.167 -41.267  0.00  0.00    +0.000 C 
BRANCH  19  23
ATOM     23  O   UNL     1     -65.633 -56.741 -43.545  0.00  0.00    +0.000 OA
ATOM     24  H   UNL     1     -65.862 -57.141 -44.404  0.00  0.00    +0.000 HD
ENDBRANCH  19  23
ENDBRANCH  11  14
ENDBRANCH   6  12
ENDBRANCH   1   2
BRANCH   1  25
ATOM     25  C   UNL     1     -72.541 -56.306 -30.046  0.00  0.00    +0.000 C 
ATOM     26  C   UNL     1     -72.554 -56.621 -28.888  0.00  0.00    +0.000 C 
BRANCH  26  28
ATOM     27  C   UNL     1     -72.581 -57.357 -26.258  0.00  0.00    +0.000 C 
ATOM     28  C   UNL     1     -72.570 -57.031 -27.412  0.00  0.00    +0.000 C 
BRANCH  27  29
ATOM     29  C   UNL     1     -72.596 -57.782 -24.784  0.00  0.00    +0.000 C 
BRANCH  29  30
ATOM     30  C   UNL     1     -72.613 -58.150 -23.542  0.00  0.00    +0.000 C 
ATOM     31  C   UNL     1     -72.039 -59.473 -23.136  0.00  0.00    +0.000 C 
BRANCH  30  33
ATOM     32  C   UNL     1     -73.748 -56.618 -21.745  0.00  0.00    +0.000 C 
ATOM     33  C   UNL     1     -73.228 -57.322 -22.568  0.00  0.00    +0.000 C 
BRANCH  32  39
ATOM     34  C   UNL     1     -75.850 -55.678 -20.755  0.00  0.00    +0.000 C 
ATOM     35  C   UNL     1     -73.493 -55.020 -19.874  0.00  0.00    +0.000 C 
ATOM     36  C   UNL     1     -76.240 -55.022 -19.499  0.00  0.00    +0.000 C 
ATOM     37  C   UNL     1     -75.637 -54.410 -18.381  0.00  0.00    +0.000 C 
ATOM     38  C   UNL     1     -74.282 -54.517 -18.755  0.00  0.00    +0.000 C 
ATOM     39  C   UNL     1     -74.323 -55.844 -20.845  0.00  0.00    +0.000 C 
ATOM     40  C   UNL     1     -76.521 -57.085 -20.791  0.00  0.00    +0.000 C 
ATOM     41  C   UNL     1     -76.329 -54.831 -21.964  0.00  0.00    +0.000 C 
ATOM     42  C   UNL     1     -72.767 -53.884 -20.601  0.00  0.00    +0.000 C 
BRANCH  35  43
ATOM     43  O   UNL     1     -72.465 -55.828 -19.342  0.00  0.00    +0.000 OA
ATOM     44  H   UNL     1     -71.886 -55.939 -20.120  0.00  0.00    +0.000 HD
ENDBRANCH  35  43
BRANCH  37  45
ATOM     45  O   UNL     1     -76.145 -53.204 -17.915  0.00  0.00    +0.000 OA
BRANCH  45  47
ATOM     46  O   UNL     1     -77.378 -54.153 -16.160  0.00  0.00    +0.000 OA
ATOM     47  C   UNL     1     -77.225 -53.432 -17.128  0.00  0.00    +0.000 C 
ATOM     48  C   UNL     1     -78.441 -52.673 -17.528  0.00  0.00    +0.000 C 
ENDBRANCH  45  47
ENDBRANCH  37  45
ENDBRANCH  32  39
ENDBRANCH  30  33
ENDBRANCH  29  30
ENDBRANCH  27  29
ENDBRANCH  26  28
ENDBRANCH   1  25
TORSDOF 13
ENDMDL
