MODEL 1
REMARK VINA RESULT:      -5.8      0.000      0.000
REMARK  Name = 5318517_Andrographolide.pdbqt.pdb
REMARK  6 active torsions:
REMARK  status: ('A' for Active; 'I' for Inactive)
REMARK    1  A    between atoms: C_3  and  C_16
REMARK    2  A    between atoms: C_4  and  C_19
REMARK    3  A    between atoms: C_6  and  O_14
REMARK    4  A    between atoms: C_16  and  O_17
REMARK    5  A    between atoms: C_22  and  C_23
REMARK    6  A    between atoms: C_24  and  O_27
REMARK                            x       y       z     vdW  Elec       q    Type
REMARK                         _______ _______ _______ _____ _____    ______ ____
ROOT
ATOM      1  C   UNL     1     -63.066 -54.972 -16.740  0.00  0.00    +0.000 C 
ATOM      2  C   UNL     1     -63.856 -55.741 -15.639  0.00  0.00    +0.000 C 
ATOM      3  C   UNL     1     -63.274 -56.958 -14.898  0.00  0.00    +0.000 C 
ATOM      4  C   UNL     1     -63.902 -54.277 -17.852  0.00  0.00    +0.000 C 
ATOM      5  C   UNL     1     -62.187 -55.976 -17.332  0.00  0.00    +0.000 C 
ATOM      6  C   UNL     1     -62.161 -57.768 -15.629  0.00  0.00    +0.000 C 
ATOM      7  C   UNL     1     -65.171 -55.238 -15.425  0.00  0.00    +0.000 C 
ATOM      8  C   UNL     1     -61.703 -57.312 -16.878  0.00  0.00    +0.000 C 
ATOM      9  C   UNL     1     -62.230 -53.869 -16.022  0.00  0.00    +0.000 C 
ATOM     10  C   UNL     1     -65.835 -54.285 -16.367  0.00  0.00    +0.000 C 
ATOM     11  C   UNL     1     -65.260 -53.796 -17.558  0.00  0.00    +0.000 C 
ATOM     12  C   UNL     1     -64.445 -57.977 -14.654  0.00  0.00    +0.000 C 
ATOM     13  C   UNL     1     -66.051 -53.147 -18.413  0.00  0.00    +0.000 C 
ENDROOT
BRANCH   6  14
ATOM     14  O   UNL     1     -61.492 -58.793 -14.984  0.00  0.00    +0.000 OA
ATOM     15  H   UNL     1     -61.497 -59.620 -15.498  0.00  0.00    +0.000 HD
ENDBRANCH   6  14
BRANCH   4  16
ATOM     16  C   UNL     1     -63.311 -53.989 -19.128  0.00  0.00    +0.000 C 
ATOM     17  C   UNL     1     -62.690 -53.684 -20.495  0.00  0.00    +0.000 C 
BRANCH  17  20
ATOM     18  O   UNL     1     -61.465 -53.783 -23.838  0.00  0.00    +0.000 OA
ATOM     19  O   UNL     1     -62.021 -55.679 -22.598  0.00  0.00    +0.000 OA
ATOM     20  C   UNL     1     -62.170 -53.418 -21.652  0.00  0.00    +0.000 C 
ATOM     21  C   UNL     1     -61.856 -52.123 -22.200  0.00  0.00    +0.000 C 
ATOM     22  C   UNL     1     -61.895 -54.472 -22.706  0.00  0.00    +0.000 C 
ATOM     23  C   UNL     1     -61.478 -52.506 -23.488  0.00  0.00    +0.000 C 
BRANCH  21  24
ATOM     24  O   UNL     1     -62.643 -51.044 -21.913  0.00  0.00    +0.000 OA
ATOM     25  H   UNL     1     -63.395 -51.287 -21.344  0.00  0.00    +0.000 HD
ENDBRANCH  21  24
ENDBRANCH  17  20
ENDBRANCH   4  16
BRANCH   3  26
ATOM     26  C   UNL     1     -62.730 -56.476 -13.597  0.00  0.00    +0.000 C 
BRANCH  26  27
ATOM     27  O   UNL     1     -62.249 -56.034 -12.432  0.00  0.00    +0.000 OA
ATOM     28  H   UNL     1     -62.661 -56.509 -11.687  0.00  0.00    +0.000 HD
ENDBRANCH  26  27
ENDBRANCH   3  26
TORSDOF 6
ENDMDL
MODEL 2
REMARK VINA RESULT:      -5.8     53.114     58.422
REMARK  Name = 5318517_Andrographolide.pdbqt.pdb
REMARK  6 active torsions:
REMARK  status: ('A' for Active; 'I' for Inactive)
REMARK    1  A    between atoms: C_3  and  C_16
REMARK    2  A    between atoms: C_4  and  C_19
REMARK    3  A    between atoms: C_6  and  O_14
REMARK    4  A    between atoms: C_16  and  O_17
REMARK    5  A    between atoms: C_22  and  C_23
REMARK    6  A    between atoms: C_24  and  O_27
REMARK                            x       y       z     vdW  Elec       q    Type
REMARK                         _______ _______ _______ _____ _____    ______ ____
ROOT
ATOM      1  C   UNL     1     -65.355 -60.373 -77.029  0.00  0.00    +0.000 C 
ATOM      2  C   UNL     1     -65.538 -59.255 -78.100  0.00  0.00    +0.000 C 
ATOM      3  C   UNL     1     -64.471 -58.944 -79.164  0.00  0.00    +0.000 C 
ATOM      4  C   UNL     1     -66.076 -60.168 -75.667  0.00  0.00    +0.000 C 
ATOM      5  C   UNL     1     -63.912 -60.452 -76.822  0.00  0.00    +0.000 C 
ATOM      6  C   UNL     1     -62.998 -59.329 -78.826  0.00  0.00    +0.000 C 
ATOM      7  C   UNL     1     -66.756 -58.530 -77.964  0.00  0.00    +0.000 C 
ATOM      8  C   UNL     1     -62.735 -59.996 -77.616  0.00  0.00    +0.000 C 
ATOM      9  C   UNL     1     -65.892 -61.698 -77.651  0.00  0.00    +0.000 C 
ATOM     10  C   UNL     1     -67.617 -58.618 -76.745  0.00  0.00    +0.000 C 
ATOM     11  C   UNL     1     -67.325 -59.395 -75.605  0.00  0.00    +0.000 C 
ATOM     12  C   UNL     1     -64.457 -57.389 -79.390  0.00  0.00    +0.000 C 
ATOM     13  C   UNL     1     -68.055 -59.192 -74.507  0.00  0.00    +0.000 C 
ENDROOT
BRANCH   6  14
ATOM     14  O   UNL     1     -61.999 -59.207 -79.776  0.00  0.00    +0.000 OA
ATOM     15  H   UNL     1     -62.281 -59.526 -80.652  0.00  0.00    +0.000 HD
ENDBRANCH   6  14
BRANCH   4  16
ATOM     16  C   UNL     1     -65.599 -60.835 -74.488  0.00  0.00    +0.000 C 
ATOM     17  C   UNL     1     -65.089 -61.536 -73.226  0.00  0.00    +0.000 C 
BRANCH  17  20
ATOM     18  O   UNL     1     -64.333 -62.504 -69.882  0.00  0.00    +0.000 OA
ATOM     19  O   UNL     1     -65.158 -60.404 -70.475  0.00  0.00    +0.000 OA
ATOM     20  C   UNL     1     -64.665 -62.128 -72.153  0.00  0.00    +0.000 C 
ATOM     21  C   UNL     1     -64.128 -63.460 -72.036  0.00  0.00    +0.000 C 
ATOM     22  C   UNL     1     -64.771 -61.522 -70.768  0.00  0.00    +0.000 C 
ATOM     23  C   UNL     1     -64.008 -63.536 -70.647  0.00  0.00    +0.000 C 
BRANCH  21  24
ATOM     24  O   UNL     1     -64.604 -64.467 -72.827  0.00  0.00    +0.000 OA
ATOM     25  H   UNL     1     -64.004 -65.233 -72.838  0.00  0.00    +0.000 HD
ENDBRANCH  21  24
ENDBRANCH  17  20
ENDBRANCH   4  16
BRANCH   3  26
ATOM     26  C   UNL     1     -64.867 -59.644 -80.418  0.00  0.00    +0.000 C 
BRANCH  26  27
ATOM     27  O   UNL     1     -65.232 -60.276 -81.538  0.00  0.00    +0.000 OA
ATOM     28  H   UNL     1     -65.398 -61.220 -81.360  0.00  0.00    +0.000 HD
ENDBRANCH  26  27
ENDBRANCH   3  26
TORSDOF 6
ENDMDL
MODEL 3
REMARK VINA RESULT:      -5.4     53.792     59.148
REMARK  Name = 5318517_Andrographolide.pdbqt.pdb
REMARK  6 active torsions:
REMARK  status: ('A' for Active; 'I' for Inactive)
REMARK    1  A    between atoms: C_3  and  C_16
REMARK    2  A    between atoms: C_4  and  C_19
REMARK    3  A    between atoms: C_6  and  O_14
REMARK    4  A    between atoms: C_16  and  O_17
REMARK    5  A    between atoms: C_22  and  C_23
REMARK    6  A    between atoms: C_24  and  O_27
REMARK                            x       y       z     vdW  Elec       q    Type
REMARK                         _______ _______ _______ _____ _____    ______ ____
ROOT
ATOM      1  C   UNL     1     -65.007 -61.189 -77.734  0.00  0.00    +0.000 C 
ATOM      2  C   UNL     1     -65.042 -60.662 -79.200  0.00  0.00    +0.000 C 
ATOM      3  C   UNL     1     -63.763 -60.381 -80.010  0.00  0.00    +0.000 C 
ATOM      4  C   UNL     1     -66.199 -60.795 -76.816  0.00  0.00    +0.000 C 
ATOM      5  C   UNL     1     -63.760 -60.667 -77.184  0.00  0.00    +0.000 C 
ATOM      6  C   UNL     1     -62.467 -60.068 -79.204  0.00  0.00    +0.000 C 
ATOM      7  C   UNL     1     -66.358 -60.425 -79.690  0.00  0.00    +0.000 C 
ATOM      8  C   UNL     1     -62.514 -60.127 -77.800  0.00  0.00    +0.000 C 
ATOM      9  C   UNL     1     -64.964 -62.746 -77.806  0.00  0.00    +0.000 C 
ATOM     10  C   UNL     1     -67.556 -60.384 -78.798  0.00  0.00    +0.000 C 
ATOM     11  C   UNL     1     -67.527 -60.553 -77.398  0.00  0.00    +0.000 C 
ATOM     12  C   UNL     1     -64.026 -59.110 -80.896  0.00  0.00    +0.000 C 
ATOM     13  C   UNL     1     -68.630 -60.256 -76.709  0.00  0.00    +0.000 C 
ENDROOT
BRANCH   6  14
ATOM     14  O   UNL     1     -61.248 -59.935 -79.847  0.00  0.00    +0.000 OA
ATOM     15  H   UNL     1     -60.959 -60.766 -80.264  0.00  0.00    +0.000 HD
ENDBRANCH   6  14
BRANCH   4  16
ATOM     16  C   UNL     1     -66.041 -60.789 -75.389  0.00  0.00    +0.000 C 
ATOM     17  C   UNL     1     -65.880 -60.774 -73.866  0.00  0.00    +0.000 C 
BRANCH  17  20
ATOM     18  O   UNL     1     -64.794 -61.181 -70.498  0.00  0.00    +0.000 OA
ATOM     19  O   UNL     1     -63.891 -62.344 -72.307  0.00  0.00    +0.000 OA
ATOM     20  C   UNL     1     -65.752 -60.766 -72.576  0.00  0.00    +0.000 C 
ATOM     21  C   UNL     1     -66.486 -59.971 -71.624  0.00  0.00    +0.000 C 
ATOM     22  C   UNL     1     -64.686 -61.550 -71.837  0.00  0.00    +0.000 C 
ATOM     23  C   UNL     1     -65.791 -60.310 -70.461  0.00  0.00    +0.000 C 
BRANCH  21  24
ATOM     24  O   UNL     1     -66.885 -58.705 -71.945  0.00  0.00    +0.000 OA
ATOM     25  H   UNL     1     -66.723 -58.502 -72.884  0.00  0.00    +0.000 HD
ENDBRANCH  21  24
ENDBRANCH  17  20
ENDBRANCH   4  16
BRANCH   3  26
ATOM     26  C   UNL     1     -63.507 -61.568 -80.875  0.00  0.00    +0.000 C 
BRANCH  26  27
ATOM     27  O   UNL     1     -63.280 -62.639 -81.641  0.00  0.00    +0.000 OA
ATOM     28  H   UNL     1     -62.736 -62.399 -82.413  0.00  0.00    +0.000 HD
ENDBRANCH  26  27
ENDBRANCH   3  26
TORSDOF 6
ENDMDL
MODEL 4
REMARK VINA RESULT:      -5.4     16.573     19.287
REMARK  Name = 5318517_Andrographolide.pdbqt.pdb
REMARK  6 active torsions:
REMARK  status: ('A' for Active; 'I' for Inactive)
REMARK    1  A    between atoms: C_3  and  C_16
REMARK    2  A    between atoms: C_4  and  C_19
REMARK    3  A    between atoms: C_6  and  O_14
REMARK    4  A    between atoms: C_16  and  O_17
REMARK    5  A    between atoms: C_22  and  C_23
REMARK    6  A    between atoms: C_24  and  O_27
REMARK                            x       y       z     vdW  Elec       q    Type
REMARK                         _______ _______ _______ _____ _____    ______ ____
ROOT
ATOM      1  C   UNL     1     -70.232 -56.845 -34.725  0.00  0.00    +0.000 C 
ATOM      2  C   UNL     1     -70.482 -56.551 -33.215  0.00  0.00    +0.000 C 
ATOM      3  C   UNL     1     -71.681 -55.722 -32.720  0.00  0.00    +0.000 C 
ATOM      4  C   UNL     1     -68.755 -57.045 -35.168  0.00  0.00    +0.000 C 
ATOM      5  C   UNL     1     -70.810 -55.701 -35.424  0.00  0.00    +0.000 C 
ATOM      6  C   UNL     1     -72.305 -54.706 -33.724  0.00  0.00    +0.000 C 
ATOM      7  C   UNL     1     -69.477 -57.080 -32.357  0.00  0.00    +0.000 C 
ATOM      8  C   UNL     1     -71.795 -54.651 -35.033  0.00  0.00    +0.000 C 
ATOM      9  C   UNL     1     -71.009 -58.150 -35.075  0.00  0.00    +0.000 C 
ATOM     10  C   UNL     1     -68.165 -57.587 -32.866  0.00  0.00    +0.000 C 
ATOM     11  C   UNL     1     -67.770 -57.586 -34.219  0.00  0.00    +0.000 C 
ATOM     12  C   UNL     1     -71.197 -54.862 -31.497  0.00  0.00    +0.000 C 
ATOM     13  C   UNL     1     -66.491 -57.844 -34.497  0.00  0.00    +0.000 C 
ENDROOT
BRANCH   6  14
ATOM     14  O   UNL     1     -73.464 -54.019 -33.407  0.00  0.00    +0.000 OA
ATOM     15  H   UNL     1     -74.238 -54.359 -33.890  0.00  0.00    +0.000 HD
ENDBRANCH   6  14
BRANCH   4  16
ATOM     16  C   UNL     1     -68.373 -56.826 -36.534  0.00  0.00    +0.000 C 
ATOM     17  C   UNL     1     -67.967 -56.580 -37.991  0.00  0.00    +0.000 C 
BRANCH  17  20
ATOM     18  O   UNL     1     -66.685 -55.260 -41.040  0.00  0.00    +0.000 OA
ATOM     19  O   UNL     1     -66.957 -54.007 -39.091  0.00  0.00    +0.000 OA
ATOM     20  C   UNL     1     -67.616 -56.369 -39.220  0.00  0.00    +0.000 C 
ATOM     21  C   UNL     1     -67.578 -57.322 -40.301  0.00  0.00    +0.000 C 
ATOM     22  C   UNL     1     -67.060 -55.049 -39.715  0.00  0.00    +0.000 C 
ATOM     23  C   UNL     1     -66.990 -56.525 -41.286  0.00  0.00    +0.000 C 
BRANCH  21  24
ATOM     24  O   UNL     1     -67.246 -58.625 -40.060  0.00  0.00    +0.000 OA
ATOM     25  H   UNL     1     -66.678 -58.714 -39.274  0.00  0.00    +0.000 HD
ENDBRANCH  21  24
ENDBRANCH  17  20
ENDBRANCH   4  16
BRANCH   3  26
ATOM     26  C   UNL     1     -72.743 -56.676 -32.291  0.00  0.00    +0.000 C 
BRANCH  26  27
ATOM     27  O   UNL     1     -73.701 -57.529 -31.917  0.00  0.00    +0.000 OA
ATOM     28  H   UNL     1     -74.553 -57.066 -31.818  0.00  0.00    +0.000 HD
ENDBRANCH  26  27
ENDBRANCH   3  26
TORSDOF 6
ENDMDL
MODEL 5
REMARK VINA RESULT:      -5.4     11.723     13.468
REMARK  Name = 5318517_Andrographolide.pdbqt.pdb
REMARK  6 active torsions:
REMARK  status: ('A' for Active; 'I' for Inactive)
REMARK    1  A    between atoms: C_3  and  C_16
REMARK    2  A    between atoms: C_4  and  C_19
REMARK    3  A    between atoms: C_6  and  O_14
REMARK    4  A    between atoms: C_16  and  O_17
REMARK    5  A    between atoms: C_22  and  C_23
REMARK    6  A    between atoms: C_24  and  O_27
REMARK                            x       y       z     vdW  Elec       q    Type
REMARK                         _______ _______ _______ _____ _____    ______ ____
ROOT
ATOM      1  C   UNL     1     -73.805 -57.144 -24.981  0.00  0.00    +0.000 C 
ATOM      2  C   UNL     1     -73.746 -57.273 -23.429  0.00  0.00    +0.000 C 
ATOM      3  C   UNL     1     -74.517 -56.328 -22.490  0.00  0.00    +0.000 C 
ATOM      4  C   UNL     1     -72.554 -57.617 -25.775  0.00  0.00    +0.000 C 
ATOM      5  C   UNL     1     -74.042 -55.724 -25.225  0.00  0.00    +0.000 C 
ATOM      6  C   UNL     1     -74.878 -54.916 -23.043  0.00  0.00    +0.000 C 
ATOM      7  C   UNL     1     -72.882 -58.309 -22.975  0.00  0.00    +0.000 C 
ATOM      8  C   UNL     1     -74.550 -54.609 -24.376  0.00  0.00    +0.000 C 
ATOM      9  C   UNL     1     -75.019 -57.993 -25.468  0.00  0.00    +0.000 C 
ATOM     10  C   UNL     1     -71.898 -58.991 -23.871  0.00  0.00    +0.000 C 
ATOM     11  C   UNL     1     -71.701 -58.686 -25.234  0.00  0.00    +0.000 C 
ATOM     12  C   UNL     1     -73.617 -56.067 -21.228  0.00  0.00    +0.000 C 
ATOM     13  C   UNL     1     -70.633 -59.204 -25.842  0.00  0.00    +0.000 C 
ENDROOT
BRANCH   6  14
ATOM     14  O   UNL     1     -75.683 -54.056 -22.317  0.00  0.00    +0.000 OA
ATOM     15  H   UNL     1     -75.503 -53.121 -22.522  0.00  0.00    +0.000 HD
ENDBRANCH   6  14
BRANCH   4  16
ATOM     16  C   UNL     1     -72.297 -57.107 -27.092  0.00  0.00    +0.000 C 
ATOM     17  C   UNL     1     -72.020 -56.572 -28.500  0.00  0.00    +0.000 C 
BRANCH  17  20
ATOM     18  O   UNL     1     -72.266 -55.283 -31.811  0.00  0.00    +0.000 OA
ATOM     19  O   UNL     1     -74.072 -56.145 -30.612  0.00  0.00    +0.000 OA
ATOM     20  C   UNL     1     -71.794 -56.125 -29.695  0.00  0.00    +0.000 C 
ATOM     21  C   UNL     1     -70.538 -55.685 -30.248  0.00  0.00    +0.000 C 
ATOM     22  C   UNL     1     -72.887 -55.879 -30.716  0.00  0.00    +0.000 C 
ATOM     23  C   UNL     1     -70.987 -55.201 -31.478  0.00  0.00    +0.000 C 
BRANCH  21  24
ATOM     24  O   UNL     1     -69.620 -55.053 -29.456  0.00  0.00    +0.000 OA
ATOM     25  H   UNL     1     -68.764 -54.951 -29.907  0.00  0.00    +0.000 HD
ENDBRANCH  21  24
ENDBRANCH  17  20
ENDBRANCH   4  16
BRANCH   3  26
ATOM     26  C   UNL     1     -75.777 -57.016 -22.091  0.00  0.00    +0.000 C 
BRANCH  26  27
ATOM     27  O   UNL     1     -76.903 -57.633 -21.722  0.00  0.00    +0.000 OA
ATOM     28  H   UNL     1     -77.160 -57.367 -20.820  0.00  0.00    +0.000 HD
ENDBRANCH  26  27
ENDBRANCH   3  26
TORSDOF 6
ENDMDL
MODEL 6
REMARK VINA RESULT:      -5.3     53.271     57.453
REMARK  Name = 5318517_Andrographolide.pdbqt.pdb
REMARK  6 active torsions:
REMARK  status: ('A' for Active; 'I' for Inactive)
REMARK    1  A    between atoms: C_3  and  C_16
REMARK    2  A    between atoms: C_4  and  C_19
REMARK    3  A    between atoms: C_6  and  O_14
REMARK    4  A    between atoms: C_16  and  O_17
REMARK    5  A    between atoms: C_22  and  C_23
REMARK    6  A    between atoms: C_24  and  O_27
REMARK                            x       y       z     vdW  Elec       q    Type
REMARK                         _______ _______ _______ _____ _____    ______ ____
ROOT
ATOM      1  C   UNL     1     -66.393 -60.816 -74.127  0.00  0.00    +0.000 C 
ATOM      2  C   UNL     1     -67.215 -61.730 -73.168  0.00  0.00    +0.000 C 
ATOM      3  C   UNL     1     -66.788 -62.000 -71.714  0.00  0.00    +0.000 C 
ATOM      4  C   UNL     1     -66.473 -61.138 -75.646  0.00  0.00    +0.000 C 
ATOM      5  C   UNL     1     -65.014 -60.939 -73.663  0.00  0.00    +0.000 C 
ATOM      6  C   UNL     1     -65.274 -61.845 -71.377  0.00  0.00    +0.000 C 
ATOM      7  C   UNL     1     -68.357 -62.319 -73.781  0.00  0.00    +0.000 C 
ATOM      8  C   UNL     1     -64.399 -61.405 -72.387  0.00  0.00    +0.000 C 
ATOM      9  C   UNL     1     -66.909 -59.358 -73.928  0.00  0.00    +0.000 C 
ATOM     10  C   UNL     1     -68.571 -62.316 -75.260  0.00  0.00    +0.000 C 
ATOM     11  C   UNL     1     -67.683 -61.759 -76.204  0.00  0.00    +0.000 C 
ATOM     12  C   UNL     1     -67.144 -63.493 -71.379  0.00  0.00    +0.000 C 
ATOM     13  C   UNL     1     -67.884 -62.038 -77.492  0.00  0.00    +0.000 C 
ENDROOT
BRANCH   6  14
ATOM     14  O   UNL     1     -64.826 -61.939 -70.071  0.00  0.00    +0.000 OA
ATOM     15  H   UNL     1     -64.186 -62.663 -69.951  0.00  0.00    +0.000 HD
ENDBRANCH   6  14
BRANCH   4  16
ATOM     16  C   UNL     1     -65.423 -60.717 -76.531  0.00  0.00    +0.000 C 
ATOM     17  C   UNL     1     -64.308 -60.274 -77.483  0.00  0.00    +0.000 C 
BRANCH  17  20
ATOM     18  O   UNL     1     -61.606 -60.082 -79.795  0.00  0.00    +0.000 OA
ATOM     19  O   UNL     1     -62.193 -62.019 -78.636  0.00  0.00    +0.000 OA
ATOM     20  C   UNL     1     -63.371 -59.892 -78.292  0.00  0.00    +0.000 C 
ATOM     21  C   UNL     1     -63.173 -58.580 -78.856  0.00  0.00    +0.000 C 
ATOM     22  C   UNL     1     -62.346 -60.837 -78.889  0.00  0.00    +0.000 C 
ATOM     23  C   UNL     1     -62.121 -58.863 -79.728  0.00  0.00    +0.000 C 
BRANCH  21  24
ATOM     24  O   UNL     1     -64.247 -57.795 -79.167  0.00  0.00    +0.000 OA
ATOM     25  H   UNL     1     -64.039 -57.164 -79.878  0.00  0.00    +0.000 HD
ENDBRANCH  21  24
ENDBRANCH  17  20
ENDBRANCH   4  16
BRANCH   3  26
ATOM     26  C   UNL     1     -67.564 -61.076 -70.838  0.00  0.00    +0.000 C 
BRANCH  26  27
ATOM     27  O   UNL     1     -68.257 -60.240 -70.060  0.00  0.00    +0.000 OA
ATOM     28  H   UNL     1     -68.435 -59.404 -70.529  0.00  0.00    +0.000 HD
ENDBRANCH  26  27
ENDBRANCH   3  26
TORSDOF 6
ENDMDL
MODEL 7
REMARK VINA RESULT:      -5.3     37.853     41.358
REMARK  Name = 5318517_Andrographolide.pdbqt.pdb
REMARK  6 active torsions:
REMARK  status: ('A' for Active; 'I' for Inactive)
REMARK    1  A    between atoms: C_3  and  C_16
REMARK    2  A    between atoms: C_4  and  C_19
REMARK    3  A    between atoms: C_6  and  O_14
REMARK    4  A    between atoms: C_16  and  O_17
REMARK    5  A    between atoms: C_22  and  C_23
REMARK    6  A    between atoms: C_24  and  O_27
REMARK                            x       y       z     vdW  Elec       q    Type
REMARK                         _______ _______ _______ _____ _____    ______ ____
ROOT
ATOM      1  C   UNL     1     -65.111 -46.360 -58.329  0.00  0.00    +0.000 C 
ATOM      2  C   UNL     1     -63.613 -45.931 -58.350  0.00  0.00    +0.000 C 
ATOM      3  C   UNL     1     -62.759 -45.964 -59.630  0.00  0.00    +0.000 C 
ATOM      4  C   UNL     1     -65.659 -46.942 -56.995  0.00  0.00    +0.000 C 
ATOM      5  C   UNL     1     -65.224 -47.356 -59.391  0.00  0.00    +0.000 C 
ATOM      6  C   UNL     1     -63.201 -46.951 -60.752  0.00  0.00    +0.000 C 
ATOM      7  C   UNL     1     -63.110 -45.556 -57.072  0.00  0.00    +0.000 C 
ATOM      8  C   UNL     1     -64.378 -47.698 -60.570  0.00  0.00    +0.000 C 
ATOM      9  C   UNL     1     -65.957 -45.095 -58.673  0.00  0.00    +0.000 C 
ATOM     10  C   UNL     1     -63.842 -45.841 -55.800  0.00  0.00    +0.000 C 
ATOM     11  C   UNL     1     -65.078 -46.515 -55.714  0.00  0.00    +0.000 C 
ATOM     12  C   UNL     1     -61.306 -46.407 -59.227  0.00  0.00    +0.000 C 
ATOM     13  C   UNL     1     -65.493 -46.908 -54.509  0.00  0.00    +0.000 C 
ENDROOT
BRANCH   6  14
ATOM     14  O   UNL     1     -62.570 -46.950 -61.985  0.00  0.00    +0.000 OA
ATOM     15  H   UNL     1     -61.646 -47.250 -61.927  0.00  0.00    +0.000 HD
ENDBRANCH   6  14
BRANCH   4  16
ATOM     16  C   UNL     1     -66.812 -47.797 -56.998  0.00  0.00    +0.000 C 
ATOM     17  C   UNL     1     -68.036 -48.718 -56.999  0.00  0.00    +0.000 C 
BRANCH  17  20
ATOM     18  O   UNL     1     -71.155 -50.326 -57.603  0.00  0.00    +0.000 OA
ATOM     19  O   UNL     1     -70.613 -48.199 -58.392  0.00  0.00    +0.000 OA
ATOM     20  C   UNL     1     -69.071 -49.498 -56.990  0.00  0.00    +0.000 C 
ATOM     21  C   UNL     1     -69.193 -50.792 -56.368  0.00  0.00    +0.000 C 
ATOM     22  C   UNL     1     -70.343 -49.206 -57.760  0.00  0.00    +0.000 C 
ATOM     23  C   UNL     1     -70.457 -51.153 -56.839  0.00  0.00    +0.000 C 
BRANCH  21  24
ATOM     24  O   UNL     1     -68.119 -51.634 -56.312  0.00  0.00    +0.000 OA
ATOM     25  H   UNL     1     -68.003 -52.128 -57.143  0.00  0.00    +0.000 HD
ENDBRANCH  21  24
ENDBRANCH  17  20
ENDBRANCH   4  16
BRANCH   3  26
ATOM     26  C   UNL     1     -62.739 -44.585 -60.195  0.00  0.00    +0.000 C 
BRANCH  26  27
ATOM     27  O   UNL     1     -62.711 -43.351 -60.708  0.00  0.00    +0.000 OA
ATOM     28  H   UNL     1     -62.140 -42.770 -60.172  0.00  0.00    +0.000 HD
ENDBRANCH  26  27
ENDBRANCH   3  26
TORSDOF 6
ENDMDL
MODEL 8
REMARK VINA RESULT:      -5.2     50.619     53.389
REMARK  Name = 5318517_Andrographolide.pdbqt.pdb
REMARK  6 active torsions:
REMARK  status: ('A' for Active; 'I' for Inactive)
REMARK    1  A    between atoms: C_3  and  C_16
REMARK    2  A    between atoms: C_4  and  C_19
REMARK    3  A    between atoms: C_6  and  O_14
REMARK    4  A    between atoms: C_16  and  O_17
REMARK    5  A    between atoms: C_22  and  C_23
REMARK    6  A    between atoms: C_24  and  O_27
REMARK                            x       y       z     vdW  Elec       q    Type
REMARK                         _______ _______ _______ _____ _____    ______ ____
ROOT
ATOM      1  C   UNL     1     -64.529 -63.774 -69.920  0.00  0.00    +0.000 C 
ATOM      2  C   UNL     1     -65.262 -62.919 -68.842  0.00  0.00    +0.000 C 
ATOM      3  C   UNL     1     -65.999 -61.612 -69.182  0.00  0.00    +0.000 C 
ATOM      4  C   UNL     1     -63.307 -64.609 -69.444  0.00  0.00    +0.000 C 
ATOM      5  C   UNL     1     -64.110 -62.809 -70.932  0.00  0.00    +0.000 C 
ATOM      6  C   UNL     1     -65.537 -60.847 -70.459  0.00  0.00    +0.000 C 
ATOM      7  C   UNL     1     -65.140 -63.439 -67.522  0.00  0.00    +0.000 C 
ATOM      8  C   UNL     1     -64.533 -61.418 -71.262  0.00  0.00    +0.000 C 
ATOM      9  C   UNL     1     -65.577 -64.766 -70.510  0.00  0.00    +0.000 C 
ATOM     10  C   UNL     1     -64.158 -64.508 -67.163  0.00  0.00    +0.000 C 
ATOM     11  C   UNL     1     -63.247 -65.102 -68.060  0.00  0.00    +0.000 C 
ATOM     12  C   UNL     1     -65.779 -60.612 -67.990  0.00  0.00    +0.000 C 
ATOM     13  C   UNL     1     -62.277 -65.863 -67.553  0.00  0.00    +0.000 C 
ENDROOT
BRANCH   6  14
ATOM     14  O   UNL     1     -66.231 -59.738 -70.911  0.00  0.00    +0.000 OA
ATOM     15  H   UNL     1     -67.139 -59.957 -71.186  0.00  0.00    +0.000 HD
ENDBRANCH   6  14
BRANCH   4  16
ATOM     16  C   UNL     1     -62.297 -65.012 -70.382  0.00  0.00    +0.000 C 
ATOM     17  C   UNL     1     -61.228 -65.450 -71.387  0.00  0.00    +0.000 C 
BRANCH  17  20
ATOM     18  O   UNL     1     -59.431 -66.841 -74.130  0.00  0.00    +0.000 OA
ATOM     19  O   UNL     1     -61.600 -67.466 -73.543  0.00  0.00    +0.000 OA
ATOM     20  C   UNL     1     -60.327 -65.816 -72.244  0.00  0.00    +0.000 C 
ATOM     21  C   UNL     1     -58.988 -65.303 -72.388  0.00  0.00    +0.000 C 
ATOM     22  C   UNL     1     -60.588 -66.814 -73.355  0.00  0.00    +0.000 C 
ATOM     23  C   UNL     1     -58.606 -65.985 -73.545  0.00  0.00    +0.000 C 
BRANCH  21  24
ATOM     24  O   UNL     1     -58.724 -63.986 -72.143  0.00  0.00    +0.000 OA
ATOM     25  H   UNL     1     -59.511 -63.515 -71.815  0.00  0.00    +0.000 HD
ENDBRANCH  21  24
ENDBRANCH  17  20
ENDBRANCH   4  16
BRANCH   3  26
ATOM     26  C   UNL     1     -67.448 -61.934 -69.323  0.00  0.00    +0.000 C 
BRANCH  26  27
ATOM     27  O   UNL     1     -68.748 -62.212 -69.453  0.00  0.00    +0.000 OA
ATOM     28  H   UNL     1     -69.251 -61.864 -68.694  0.00  0.00    +0.000 HD
ENDBRANCH  26  27
ENDBRANCH   3  26
TORSDOF 6
ENDMDL
MODEL 9
REMARK VINA RESULT:      -5.2     59.584     62.715
REMARK  Name = 5318517_Andrographolide.pdbqt.pdb
REMARK  6 active torsions:
REMARK  status: ('A' for Active; 'I' for Inactive)
REMARK    1  A    between atoms: C_3  and  C_16
REMARK    2  A    between atoms: C_4  and  C_19
REMARK    3  A    between atoms: C_6  and  O_14
REMARK    4  A    between atoms: C_16  and  O_17
REMARK    5  A    between atoms: C_22  and  C_23
REMARK    6  A    between atoms: C_24  and  O_27
REMARK                            x       y       z     vdW  Elec       q    Type
REMARK                         _______ _______ _______ _____ _____    ______ ____
ROOT
ATOM      1  C   UNL     1     -59.029 -54.764 -81.429  0.00  0.00    +0.000 C 
ATOM      2  C   UNL     1     -59.525 -56.207 -81.745  0.00  0.00    +0.000 C 
ATOM      3  C   UNL     1     -61.011 -56.541 -81.970  0.00  0.00    +0.000 C 
ATOM      4  C   UNL     1     -57.736 -54.636 -80.575  0.00  0.00    +0.000 C 
ATOM      5  C   UNL     1     -60.148 -54.132 -80.736  0.00  0.00    +0.000 C 
ATOM      6  C   UNL     1     -62.059 -55.587 -81.324  0.00  0.00    +0.000 C 
ATOM      7  C   UNL     1     -58.484 -57.179 -81.756  0.00  0.00    +0.000 C 
ATOM      8  C   UNL     1     -61.602 -54.446 -80.638  0.00  0.00    +0.000 C 
ATOM      9  C   UNL     1     -58.762 -54.060 -82.794  0.00  0.00    +0.000 C 
ATOM     10  C   UNL     1     -57.117 -56.904 -81.217  0.00  0.00    +0.000 C 
ATOM     11  C   UNL     1     -56.710 -55.688 -80.630  0.00  0.00    +0.000 C 
ATOM     12  C   UNL     1     -61.285 -57.955 -81.342  0.00  0.00    +0.000 C 
ATOM     13  C   UNL     1     -55.545 -55.666 -79.982  0.00  0.00    +0.000 C 
ENDROOT
BRANCH   6  14
ATOM     14  O   UNL     1     -63.410 -55.737 -81.586  0.00  0.00    +0.000 OA
ATOM     15  H   UNL     1     -63.635 -56.644 -81.858  0.00  0.00    +0.000 HD
ENDBRANCH   6  14
BRANCH   4  16
ATOM     16  C   UNL     1     -57.478 -53.436 -79.829  0.00  0.00    +0.000 C 
ATOM     17  C   UNL     1     -57.208 -52.161 -79.024  0.00  0.00    +0.000 C 
BRANCH  17  20
ATOM     18  O   UNL     1     -57.240 -49.488 -76.671  0.00  0.00    +0.000 OA
ATOM     19  O   UNL     1     -58.990 -51.006 -76.940  0.00  0.00    +0.000 OA
ATOM     20  C   UNL     1     -56.973 -51.087 -78.338  0.00  0.00    +0.000 C 
ATOM     21  C   UNL     1     -55.797 -50.254 -78.381  0.00  0.00    +0.000 C 
ATOM     22  C   UNL     1     -57.895 -50.571 -77.252  0.00  0.00    +0.000 C 
ATOM     23  C   UNL     1     -56.098 -49.381 -77.334  0.00  0.00    +0.000 C 
BRANCH  21  24
ATOM     24  O   UNL     1     -54.568 -50.808 -78.598  0.00  0.00    +0.000 OA
ATOM     25  H   UNL     1     -54.353 -51.485 -77.932  0.00  0.00    +0.000 HD
ENDBRANCH  21  24
ENDBRANCH  17  20
ENDBRANCH   4  16
BRANCH   3  26
ATOM     26  C   UNL     1     -61.247 -56.577 -83.441  0.00  0.00    +0.000 C 
BRANCH  26  27
ATOM     27  O   UNL     1     -61.462 -56.597 -84.760  0.00  0.00    +0.000 OA
ATOM     28  H   UNL     1     -61.828 -57.457 -85.035  0.00  0.00    +0.000 HD
ENDBRANCH  26  27
ENDBRANCH   3  26
TORSDOF 6
ENDMDL
