MODEL 1
REMARK VINA RESULT:      -6.0      0.000      0.000
REMARK  Name = 5326018_Caulerpin.pdbqt.pdb
REMARK  4 active torsions:
REMARK  status: ('A' for Active; 'I' for Inactive)
REMARK    1  A    between atoms: C_11  and  C_26
REMARK    2  A    between atoms: C_12  and  C_30
REMARK    3  A    between atoms: C_26  and  O_27
REMARK    4  A    between atoms: C_30  and  O_31
REMARK                            x       y       z     vdW  Elec       q    Type
REMARK                         _______ _______ _______ _____ _____    ______ ____
ROOT
ATOM      1  N   UNL     1     -54.257 -57.149 -66.245  0.00  0.00    +0.000 N 
ATOM      2  N   UNL     1     -59.361 -60.946 -64.753  0.00  0.00    +0.000 N 
ATOM      3  C   UNL     1     -55.652 -58.745 -66.893  0.00  0.00    +0.000 C 
ATOM      4  C   UNL     1     -57.717 -59.651 -64.022  0.00  0.00    +0.000 C 
ATOM      5  C   UNL     1     -55.136 -58.101 -65.771  0.00  0.00    +0.000 C 
ATOM      6  C   UNL     1     -58.146 -60.401 -65.114  0.00  0.00    +0.000 C 
ATOM      7  C   UNL     1     -55.030 -58.223 -68.052  0.00  0.00    +0.000 A 
ATOM      8  C   UNL     1     -58.650 -59.796 -62.967  0.00  0.00    +0.000 A 
ATOM      9  C   UNL     1     -54.156 -57.227 -67.618  0.00  0.00    +0.000 A 
ATOM     10  C   UNL     1     -59.669 -60.616 -63.450  0.00  0.00    +0.000 A 
ATOM     11  C   UNL     1     -55.426 -58.229 -64.367  0.00  0.00    +0.000 C 
ATOM     12  C   UNL     1     -57.594 -60.591 -66.430  0.00  0.00    +0.000 C 
ATOM     13  C   UNL     1     -56.523 -58.864 -64.044  0.00  0.00    +0.000 C 
ATOM     14  C   UNL     1     -56.666 -59.750 -66.810  0.00  0.00    +0.000 C 
ATOM     15  C   UNL     1     -55.133 -58.483 -69.431  0.00  0.00    +0.000 A 
ATOM     16  C   UNL     1     -58.743 -59.300 -61.653  0.00  0.00    +0.000 A 
ATOM     17  C   UNL     1     -53.369 -56.474 -68.497  0.00  0.00    +0.000 A 
ATOM     18  C   UNL     1     -60.783 -60.973 -62.681  0.00  0.00    +0.000 A 
ATOM     19  C   UNL     1     -54.351 -57.745 -70.322  0.00  0.00    +0.000 A 
ATOM     20  C   UNL     1     -59.844 -59.650 -60.871  0.00  0.00    +0.000 A 
ATOM     21  C   UNL     1     -53.485 -56.759 -69.859  0.00  0.00    +0.000 A 
ATOM     22  C   UNL     1     -60.844 -60.473 -61.379  0.00  0.00    +0.000 A 
ATOM     23  H   UNL     1     -53.749 -56.467 -65.696  0.00  0.00    +0.000 HD
ATOM     24  H   UNL     1     -59.973 -61.502 -65.337  0.00  0.00    +0.000 HD
ENDROOT
BRANCH  11  26
ATOM     25  O   UNL     1     -54.069 -58.601 -62.431  0.00  0.00    +0.000 OA
ATOM     26  C   UNL     1     -54.520 -57.815 -63.256  0.00  0.00    +0.000 C 
BRANCH  26  27
ATOM     27  O   UNL     1     -54.290 -56.474 -63.352  0.00  0.00    +0.000 OA
ATOM     28  C   UNL     1     -55.189 -55.599 -62.724  0.00  0.00    +0.000 C 
ENDBRANCH  26  27
ENDBRANCH  11  26
BRANCH  12  30
ATOM     29  O   UNL     1     -59.036 -62.113 -67.583  0.00  0.00    +0.000 OA
ATOM     30  C   UNL     1     -57.896 -61.735 -67.338  0.00  0.00    +0.000 C 
BRANCH  30  31
ATOM     31  O   UNL     1     -56.723 -62.229 -67.829  0.00  0.00    +0.000 OA
ATOM     32  C   UNL     1     -56.270 -63.466 -67.345  0.00  0.00    +0.000 C 
ENDBRANCH  30  31
ENDBRANCH  12  30
TORSDOF 4
ENDMDL
MODEL 2
REMARK VINA RESULT:      -5.9      0.664      7.775
REMARK  Name = 5326018_Caulerpin.pdbqt.pdb
REMARK  4 active torsions:
REMARK  status: ('A' for Active; 'I' for Inactive)
REMARK    1  A    between atoms: C_11  and  C_26
REMARK    2  A    between atoms: C_12  and  C_30
REMARK    3  A    between atoms: C_26  and  O_27
REMARK    4  A    between atoms: C_30  and  O_31
REMARK                            x       y       z     vdW  Elec       q    Type
REMARK                         _______ _______ _______ _____ _____    ______ ____
ROOT
ATOM      1  N   UNL     1     -59.235 -61.150 -65.041  0.00  0.00    +0.000 N 
ATOM      2  N   UNL     1     -54.316 -57.090 -66.456  0.00  0.00    +0.000 N 
ATOM      3  C   UNL     1     -57.726 -59.710 -64.292  0.00  0.00    +0.000 C 
ATOM      4  C   UNL     1     -55.563 -58.809 -67.091  0.00  0.00    +0.000 C 
ATOM      5  C   UNL     1     -58.040 -60.543 -65.365  0.00  0.00    +0.000 C 
ATOM      6  C   UNL     1     -55.157 -58.075 -65.980  0.00  0.00    +0.000 C 
ATOM      7  C   UNL     1     -58.707 -59.867 -63.284  0.00  0.00    +0.000 A 
ATOM      8  C   UNL     1     -54.911 -58.303 -68.242  0.00  0.00    +0.000 A 
ATOM      9  C   UNL     1     -59.639 -60.779 -63.776  0.00  0.00    +0.000 A 
ATOM     10  C   UNL     1     -54.131 -57.229 -67.816  0.00  0.00    +0.000 A 
ATOM     11  C   UNL     1     -57.402 -60.759 -66.636  0.00  0.00    +0.000 C 
ATOM     12  C   UNL     1     -55.518 -58.152 -64.589  0.00  0.00    +0.000 C 
ATOM     13  C   UNL     1     -56.511 -59.876 -67.010  0.00  0.00    +0.000 C 
ATOM     14  C   UNL     1     -56.588 -58.845 -64.292  0.00  0.00    +0.000 C 
ATOM     15  C   UNL     1     -58.907 -59.312 -62.006  0.00  0.00    +0.000 A 
ATOM     16  C   UNL     1     -54.916 -58.638 -69.609  0.00  0.00    +0.000 A 
ATOM     17  C   UNL     1     -60.769 -61.173 -63.051  0.00  0.00    +0.000 A 
ATOM     18  C   UNL     1     -53.347 -56.468 -68.690  0.00  0.00    +0.000 A 
ATOM     19  C   UNL     1     -60.027 -59.699 -61.266  0.00  0.00    +0.000 A 
ATOM     20  C   UNL     1     -54.135 -57.894 -70.494  0.00  0.00    +0.000 A 
ATOM     21  C   UNL     1     -60.939 -60.614 -61.783  0.00  0.00    +0.000 A 
ATOM     22  C   UNL     1     -53.365 -56.829 -70.038  0.00  0.00    +0.000 A 
ATOM     23  H   UNL     1     -59.774 -61.776 -65.627  0.00  0.00    +0.000 HD
ATOM     24  H   UNL     1     -53.887 -56.347 -65.918  0.00  0.00    +0.000 HD
ENDROOT
BRANCH  11  26
ATOM     25  O   UNL     1     -56.638 -62.655 -67.880  0.00  0.00    +0.000 OA
ATOM     26  C   UNL     1     -57.575 -61.965 -67.496  0.00  0.00    +0.000 C 
BRANCH  26  27
ATOM     27  O   UNL     1     -58.906 -62.148 -67.734  0.00  0.00    +0.000 OA
ATOM     28  C   UNL     1     -59.326 -63.387 -68.242  0.00  0.00    +0.000 C 
ENDBRANCH  26  27
ENDBRANCH  11  26
BRANCH  12  30
ATOM     29  O   UNL     1     -53.484 -57.677 -63.421  0.00  0.00    +0.000 OA
ATOM     30  C   UNL     1     -54.707 -57.622 -63.454  0.00  0.00    +0.000 C 
BRANCH  30  31
ATOM     31  O   UNL     1     -55.550 -57.076 -62.529  0.00  0.00    +0.000 OA
ATOM     32  C   UNL     1     -55.446 -55.701 -62.267  0.00  0.00    +0.000 C 
ENDBRANCH  30  31
ENDBRANCH  12  30
TORSDOF 4
ENDMDL
MODEL 3
REMARK VINA RESULT:      -5.9     15.273     17.981
REMARK  Name = 5326018_Caulerpin.pdbqt.pdb
REMARK  4 active torsions:
REMARK  status: ('A' for Active; 'I' for Inactive)
REMARK    1  A    between atoms: C_11  and  C_26
REMARK    2  A    between atoms: C_12  and  C_30
REMARK    3  A    between atoms: C_26  and  O_27
REMARK    4  A    between atoms: C_30  and  O_31
REMARK                            x       y       z     vdW  Elec       q    Type
REMARK                         _______ _______ _______ _____ _____    ______ ____
ROOT
ATOM      1  N   UNL     1     -64.821 -47.243 -59.977  0.00  0.00    +0.000 N 
ATOM      2  N   UNL     1     -65.953 -47.447 -53.545  0.00  0.00    +0.000 N 
ATOM      3  C   UNL     1     -64.156 -46.668 -57.942  0.00  0.00    +0.000 C 
ATOM      4  C   UNL     1     -66.772 -47.653 -55.595  0.00  0.00    +0.000 C 
ATOM      5  C   UNL     1     -65.263 -47.080 -58.680  0.00  0.00    +0.000 C 
ATOM      6  C   UNL     1     -65.719 -47.112 -54.863  0.00  0.00    +0.000 C 
ATOM      7  C   UNL     1     -63.051 -46.517 -58.814  0.00  0.00    +0.000 A 
ATOM      8  C   UNL     1     -67.686 -48.266 -54.704  0.00  0.00    +0.000 A 
ATOM      9  C   UNL     1     -63.496 -46.879 -60.085  0.00  0.00    +0.000 A 
ATOM     10  C   UNL     1     -67.152 -48.119 -53.425  0.00  0.00    +0.000 A 
ATOM     11  C   UNL     1     -66.614 -47.396 -58.296  0.00  0.00    +0.000 C 
ATOM     12  C   UNL     1     -64.528 -46.408 -55.262  0.00  0.00    +0.000 C 
ATOM     13  C   UNL     1     -66.839 -47.583 -57.021  0.00  0.00    +0.000 C 
ATOM     14  C   UNL     1     -64.199 -46.471 -56.526  0.00  0.00    +0.000 C 
ATOM     15  C   UNL     1     -61.709 -46.125 -58.650  0.00  0.00    +0.000 A 
ATOM     16  C   UNL     1     -68.908 -48.948 -54.856  0.00  0.00    +0.000 A 
ATOM     17  C   UNL     1     -62.665 -46.867 -61.210  0.00  0.00    +0.000 A 
ATOM     18  C   UNL     1     -67.782 -48.617 -52.279  0.00  0.00    +0.000 A 
ATOM     19  C   UNL     1     -60.868 -46.101 -59.764  0.00  0.00    +0.000 A 
ATOM     20  C   UNL     1     -69.553 -49.446 -53.722  0.00  0.00    +0.000 A 
ATOM     21  C   UNL     1     -61.341 -46.465 -61.020  0.00  0.00    +0.000 A 
ATOM     22  C   UNL     1     -68.997 -49.281 -52.458  0.00  0.00    +0.000 A 
ATOM     23  H   UNL     1     -65.360 -47.589 -60.760  0.00  0.00    +0.000 HD
ATOM     24  H   UNL     1     -65.351 -47.256 -52.754  0.00  0.00    +0.000 HD
ENDROOT
BRANCH  11  26
ATOM     25  O   UNL     1     -67.717 -47.138 -60.404  0.00  0.00    +0.000 OA
ATOM     26  C   UNL     1     -67.794 -47.397 -59.209  0.00  0.00    +0.000 C 
BRANCH  26  27
ATOM     27  O   UNL     1     -68.902 -47.748 -58.494  0.00  0.00    +0.000 OA
ATOM     28  C   UNL     1     -70.142 -47.224 -58.892  0.00  0.00    +0.000 C 
ENDBRANCH  26  27
ENDBRANCH  11  26
BRANCH  12  30
ATOM     29  O   UNL     1     -63.834 -45.483 -53.166  0.00  0.00    +0.000 OA
ATOM     30  C   UNL     1     -63.718 -45.511 -54.386  0.00  0.00    +0.000 C 
BRANCH  30  31
ATOM     31  O   UNL     1     -62.859 -44.794 -55.166  0.00  0.00    +0.000 OA
ATOM     32  C   UNL     1     -62.504 -43.502 -54.747  0.00  0.00    +0.000 C 
ENDBRANCH  30  31
ENDBRANCH  12  30
TORSDOF 4
ENDMDL
MODEL 4
REMARK VINA RESULT:      -5.9     15.312     18.529
REMARK  Name = 5326018_Caulerpin.pdbqt.pdb
REMARK  4 active torsions:
REMARK  status: ('A' for Active; 'I' for Inactive)
REMARK    1  A    between atoms: C_11  and  C_26
REMARK    2  A    between atoms: C_12  and  C_30
REMARK    3  A    between atoms: C_26  and  O_27
REMARK    4  A    between atoms: C_30  and  O_31
REMARK                            x       y       z     vdW  Elec       q    Type
REMARK                         _______ _______ _______ _____ _____    ______ ____
ROOT
ATOM      1  N   UNL     1     -65.966 -47.563 -53.526  0.00  0.00    +0.000 N 
ATOM      2  N   UNL     1     -64.856 -47.238 -59.956  0.00  0.00    +0.000 N 
ATOM      3  C   UNL     1     -66.791 -47.731 -55.576  0.00  0.00    +0.000 C 
ATOM      4  C   UNL     1     -64.184 -46.700 -57.914  0.00  0.00    +0.000 C 
ATOM      5  C   UNL     1     -65.735 -47.202 -54.837  0.00  0.00    +0.000 C 
ATOM      6  C   UNL     1     -65.293 -47.099 -58.655  0.00  0.00    +0.000 C 
ATOM      7  C   UNL     1     -67.702 -48.360 -54.693  0.00  0.00    +0.000 A 
ATOM      8  C   UNL     1     -63.081 -46.533 -58.786  0.00  0.00    +0.000 A 
ATOM      9  C   UNL     1     -67.164 -48.236 -53.413  0.00  0.00    +0.000 A 
ATOM     10  C   UNL     1     -63.531 -46.872 -60.062  0.00  0.00    +0.000 A 
ATOM     11  C   UNL     1     -64.546 -46.491 -55.228  0.00  0.00    +0.000 C 
ATOM     12  C   UNL     1     -66.643 -47.422 -58.272  0.00  0.00    +0.000 C 
ATOM     13  C   UNL     1     -64.222 -46.530 -56.494  0.00  0.00    +0.000 C 
ATOM     14  C   UNL     1     -66.864 -47.634 -57.001  0.00  0.00    +0.000 C 
ATOM     15  C   UNL     1     -68.924 -49.039 -54.854  0.00  0.00    +0.000 A 
ATOM     16  C   UNL     1     -61.739 -46.144 -58.620  0.00  0.00    +0.000 A 
ATOM     17  C   UNL     1     -67.790 -48.756 -52.275  0.00  0.00    +0.000 A 
ATOM     18  C   UNL     1     -62.704 -46.838 -61.190  0.00  0.00    +0.000 A 
ATOM     19  C   UNL     1     -69.565 -49.559 -53.728  0.00  0.00    +0.000 A 
ATOM     20  C   UNL     1     -60.902 -46.099 -59.736  0.00  0.00    +0.000 A 
ATOM     21  C   UNL     1     -69.005 -49.417 -52.462  0.00  0.00    +0.000 A 
ATOM     22  C   UNL     1     -61.380 -46.439 -60.997  0.00  0.00    +0.000 A 
ATOM     23  H   UNL     1     -65.360 -47.386 -52.734  0.00  0.00    +0.000 HD
ATOM     24  H   UNL     1     -65.398 -47.569 -60.745  0.00  0.00    +0.000 HD
ENDROOT
BRANCH  11  26
ATOM     25  O   UNL     1     -63.846 -45.606 -53.118  0.00  0.00    +0.000 OA
ATOM     26  C   UNL     1     -63.734 -45.612 -54.338  0.00  0.00    +0.000 C 
BRANCH  26  27
ATOM     27  O   UNL     1     -62.876 -44.880 -55.107  0.00  0.00    +0.000 OA
ATOM     28  C   UNL     1     -62.576 -43.570 -54.704  0.00  0.00    +0.000 C 
ENDBRANCH  26  27
ENDBRANCH  11  26
BRANCH  12  30
ATOM     29  O   UNL     1     -67.757 -47.108 -60.367  0.00  0.00    +0.000 OA
ATOM     30  C   UNL     1     -67.826 -47.406 -59.181  0.00  0.00    +0.000 C 
BRANCH  30  31
ATOM     31  O   UNL     1     -68.928 -47.791 -58.474  0.00  0.00    +0.000 OA
ATOM     32  C   UNL     1     -70.191 -47.418 -58.959  0.00  0.00    +0.000 C 
ENDBRANCH  30  31
ENDBRANCH  12  30
TORSDOF 4
ENDMDL
MODEL 5
REMARK VINA RESULT:      -5.8     12.755     15.047
REMARK  Name = 5326018_Caulerpin.pdbqt.pdb
REMARK  4 active torsions:
REMARK  status: ('A' for Active; 'I' for Inactive)
REMARK    1  A    between atoms: C_11  and  C_26
REMARK    2  A    between atoms: C_12  and  C_30
REMARK    3  A    between atoms: C_26  and  O_27
REMARK    4  A    between atoms: C_30  and  O_31
REMARK                            x       y       z     vdW  Elec       q    Type
REMARK                         _______ _______ _______ _____ _____    ______ ____
ROOT
ATOM      1  N   UNL     1     -65.639 -59.115 -78.630  0.00  0.00    +0.000 N 
ATOM      2  N   UNL     1     -67.311 -59.890 -72.361  0.00  0.00    +0.000 N 
ATOM      3  C   UNL     1     -67.114 -58.713 -77.025  0.00  0.00    +0.000 C 
ATOM      4  C   UNL     1     -66.082 -60.590 -74.069  0.00  0.00    +0.000 C 
ATOM      5  C   UNL     1     -66.064 -59.552 -77.392  0.00  0.00    +0.000 C 
ATOM      6  C   UNL     1     -67.218 -59.856 -73.737  0.00  0.00    +0.000 C 
ATOM      7  C   UNL     1     -67.368 -57.803 -78.079  0.00  0.00    +0.000 A 
ATOM      8  C   UNL     1     -65.519 -61.128 -72.886  0.00  0.00    +0.000 A 
ATOM      9  C   UNL     1     -66.432 -58.080 -79.075  0.00  0.00    +0.000 A 
ATOM     10  C   UNL     1     -66.311 -60.679 -71.830  0.00  0.00    +0.000 A 
ATOM     11  C   UNL     1     -65.400 -60.625 -76.700  0.00  0.00    +0.000 C 
ATOM     12  C   UNL     1     -68.142 -59.096 -74.538  0.00  0.00    +0.000 C 
ATOM     13  C   UNL     1     -65.606 -60.716 -75.411  0.00  0.00    +0.000 C 
ATOM     14  C   UNL     1     -67.768 -58.802 -75.756  0.00  0.00    +0.000 C 
ATOM     15  C   UNL     1     -68.289 -56.759 -78.282  0.00  0.00    +0.000 A 
ATOM     16  C   UNL     1     -64.405 -61.940 -72.602  0.00  0.00    +0.000 A 
ATOM     17  C   UNL     1     -66.371 -57.363 -80.276  0.00  0.00    +0.000 A 
ATOM     18  C   UNL     1     -66.049 -61.004 -70.495  0.00  0.00    +0.000 A 
ATOM     19  C   UNL     1     -68.245 -56.037 -79.477  0.00  0.00    +0.000 A 
ATOM     20  C   UNL     1     -64.132 -62.278 -71.276  0.00  0.00    +0.000 A 
ATOM     21  C   UNL     1     -67.302 -56.338 -80.454  0.00  0.00    +0.000 A 
ATOM     22  C   UNL     1     -64.942 -61.818 -70.243  0.00  0.00    +0.000 A 
ATOM     23  H   UNL     1     -64.854 -59.472 -79.160  0.00  0.00    +0.000 HD
ATOM     24  H   UNL     1     -67.993 -59.410 -71.787  0.00  0.00    +0.000 HD
ENDROOT
BRANCH  11  26
ATOM     25  O   UNL     1     -64.967 -62.882 -77.367  0.00  0.00    +0.000 OA
ATOM     26  C   UNL     1     -64.608 -61.711 -77.346  0.00  0.00    +0.000 C 
BRANCH  26  27
ATOM     27  O   UNL     1     -63.484 -61.167 -77.898  0.00  0.00    +0.000 OA
ATOM     28  C   UNL     1     -63.034 -61.676 -79.125  0.00  0.00    +0.000 C 
ENDBRANCH  26  27
ENDBRANCH  11  26
BRANCH  12  30
ATOM     29  O   UNL     1     -69.858 -58.487 -72.984  0.00  0.00    +0.000 OA
ATOM     30  C   UNL     1     -69.533 -58.730 -74.140  0.00  0.00    +0.000 C 
BRANCH  30  31
ATOM     31  O   UNL     1     -70.316 -58.699 -75.258  0.00  0.00    +0.000 OA
ATOM     32  C   UNL     1     -71.193 -57.616 -75.423  0.00  0.00    +0.000 C 
ENDBRANCH  30  31
ENDBRANCH  12  30
TORSDOF 4
ENDMDL
MODEL 6
REMARK VINA RESULT:      -5.8      1.599      7.753
REMARK  Name = 5326018_Caulerpin.pdbqt.pdb
REMARK  4 active torsions:
REMARK  status: ('A' for Active; 'I' for Inactive)
REMARK    1  A    between atoms: C_11  and  C_26
REMARK    2  A    between atoms: C_12  and  C_30
REMARK    3  A    between atoms: C_26  and  O_27
REMARK    4  A    between atoms: C_30  and  O_31
REMARK                            x       y       z     vdW  Elec       q    Type
REMARK                         _______ _______ _______ _____ _____    ______ ____
ROOT
ATOM      1  N   UNL     1     -58.501 -59.474 -62.787  0.00  0.00    +0.000 N 
ATOM      2  N   UNL     1     -53.634 -56.880 -66.291  0.00  0.00    +0.000 N 
ATOM      3  C   UNL     1     -56.546 -58.429 -62.784  0.00  0.00    +0.000 C 
ATOM      4  C   UNL     1     -55.371 -58.256 -66.236  0.00  0.00    +0.000 C 
ATOM      5  C   UNL     1     -57.395 -59.209 -63.568  0.00  0.00    +0.000 C 
ATOM      6  C   UNL     1     -54.447 -57.593 -65.434  0.00  0.00    +0.000 C 
ATOM      7  C   UNL     1     -57.116 -58.278 -61.497  0.00  0.00    +0.000 A 
ATOM      8  C   UNL     1     -55.075 -57.994 -67.596  0.00  0.00    +0.000 A 
ATOM      9  C   UNL     1     -58.339 -58.947 -61.524  0.00  0.00    +0.000 A 
ATOM     10  C   UNL     1     -53.978 -57.132 -67.602  0.00  0.00    +0.000 A 
ATOM     11  C   UNL     1     -57.312 -59.646 -64.936  0.00  0.00    +0.000 C 
ATOM     12  C   UNL     1     -54.301 -57.502 -64.004  0.00  0.00    +0.000 C 
ATOM     13  C   UNL     1     -56.440 -59.041 -65.700  0.00  0.00    +0.000 C 
ATOM     14  C   UNL     1     -55.321 -57.883 -63.279  0.00  0.00    +0.000 C 
ATOM     15  C   UNL     1     -56.724 -57.625 -60.314  0.00  0.00    +0.000 A 
ATOM     16  C   UNL     1     -55.637 -58.388 -68.824  0.00  0.00    +0.000 A 
ATOM     17  C   UNL     1     -59.196 -59.001 -60.419  0.00  0.00    +0.000 A 
ATOM     18  C   UNL     1     -53.407 -56.643 -68.782  0.00  0.00    +0.000 A 
ATOM     19  C   UNL     1     -57.565 -57.674 -59.201  0.00  0.00    +0.000 A 
ATOM     20  C   UNL     1     -55.075 -57.913 -70.011  0.00  0.00    +0.000 A 
ATOM     21  C   UNL     1     -58.778 -58.352 -59.256  0.00  0.00    +0.000 A 
ATOM     22  C   UNL     1     -53.979 -57.058 -69.986  0.00  0.00    +0.000 A 
ATOM     23  H   UNL     1     -59.336 -59.972 -63.071  0.00  0.00    +0.000 HD
ATOM     24  H   UNL     1     -52.890 -56.244 -66.032  0.00  0.00    +0.000 HD
ENDROOT
BRANCH  11  26
ATOM     25  O   UNL     1     -58.790 -61.527 -64.862  0.00  0.00    +0.000 OA
ATOM     26  C   UNL     1     -58.040 -60.812 -65.516  0.00  0.00    +0.000 C 
BRANCH  26  27
ATOM     27  O   UNL     1     -57.741 -60.901 -66.845  0.00  0.00    +0.000 OA
ATOM     28  C   UNL     1     -58.054 -62.091 -67.518  0.00  0.00    +0.000 C 
ENDBRANCH  26  27
ENDBRANCH  11  26
BRANCH  12  30
ATOM     29  O   UNL     1     -51.945 -57.121 -63.823  0.00  0.00    +0.000 OA
ATOM     30  C   UNL     1     -53.045 -57.138 -63.285  0.00  0.00    +0.000 C 
BRANCH  30  31
ATOM     31  O   UNL     1     -53.355 -56.821 -61.994  0.00  0.00    +0.000 OA
ATOM     32  C   UNL     1     -52.867 -55.613 -61.471  0.00  0.00    +0.000 C 
ENDBRANCH  30  31
ENDBRANCH  12  30
TORSDOF 4
ENDMDL
MODEL 7
REMARK VINA RESULT:      -5.8     16.007     17.568
REMARK  Name = 5326018_Caulerpin.pdbqt.pdb
REMARK  4 active torsions:
REMARK  status: ('A' for Active; 'I' for Inactive)
REMARK    1  A    between atoms: C_11  and  C_26
REMARK    2  A    between atoms: C_12  and  C_30
REMARK    3  A    between atoms: C_26  and  O_27
REMARK    4  A    between atoms: C_30  and  O_31
REMARK                            x       y       z     vdW  Elec       q    Type
REMARK                         _______ _______ _______ _____ _____    ______ ____
ROOT
ATOM      1  N   UNL     1     -64.775 -46.274 -60.248  0.00  0.00    +0.000 N 
ATOM      2  N   UNL     1     -67.535 -49.191 -55.094  0.00  0.00    +0.000 N 
ATOM      3  C   UNL     1     -64.639 -46.788 -58.097  0.00  0.00    +0.000 C 
ATOM      4  C   UNL     1     -67.803 -48.322 -57.115  0.00  0.00    +0.000 C 
ATOM      5  C   UNL     1     -65.531 -46.650 -59.157  0.00  0.00    +0.000 C 
ATOM      6  C   UNL     1     -66.957 -48.336 -56.010  0.00  0.00    +0.000 C 
ATOM      7  C   UNL     1     -63.342 -46.428 -58.535  0.00  0.00    +0.000 A 
ATOM      8  C   UNL     1     -68.936 -49.125 -56.840  0.00  0.00    +0.000 A 
ATOM      9  C   UNL     1     -63.456 -46.105 -59.887  0.00  0.00    +0.000 A 
ATOM     10  C   UNL     1     -68.745 -49.654 -55.564  0.00  0.00    +0.000 A 
ATOM     11  C   UNL     1     -66.945 -46.897 -59.266  0.00  0.00    +0.000 C 
ATOM     12  C   UNL     1     -65.681 -47.716 -55.763  0.00  0.00    +0.000 C 
ATOM     13  C   UNL     1     -67.498 -47.605 -58.314  0.00  0.00    +0.000 C 
ATOM     14  C   UNL     1     -65.039 -47.249 -56.803  0.00  0.00    +0.000 C 
ATOM     15  C   UNL     1     -62.076 -46.361 -57.924  0.00  0.00    +0.000 A 
ATOM     16  C   UNL     1     -70.099 -49.471 -57.552  0.00  0.00    +0.000 A 
ATOM     17  C   UNL     1     -62.363 -45.710 -60.666  0.00  0.00    +0.000 A 
ATOM     18  C   UNL     1     -69.666 -50.516 -54.957  0.00  0.00    +0.000 A 
ATOM     19  C   UNL     1     -60.975 -45.963 -58.686  0.00  0.00    +0.000 A 
ATOM     20  C   UNL     1     -71.030 -50.324 -56.959  0.00  0.00    +0.000 A 
ATOM     21  C   UNL     1     -61.120 -45.643 -60.032  0.00  0.00    +0.000 A 
ATOM     22  C   UNL     1     -70.815 -50.835 -55.683  0.00  0.00    +0.000 A 
ATOM     23  H   UNL     1     -65.105 -46.142 -61.196  0.00  0.00    +0.000 HD
ATOM     24  H   UNL     1     -67.151 -49.471 -54.200  0.00  0.00    +0.000 HD
ENDROOT
BRANCH  11  26
ATOM     25  O   UNL     1     -68.755 -46.935 -60.830  0.00  0.00    +0.000 OA
ATOM     26  C   UNL     1     -67.849 -46.307 -60.295  0.00  0.00    +0.000 C 
BRANCH  26  27
ATOM     27  O   UNL     1     -67.500 -45.002 -60.491  0.00  0.00    +0.000 OA
ATOM     28  C   UNL     1     -68.097 -44.027 -59.679  0.00  0.00    +0.000 C 
ENDBRANCH  26  27
ENDBRANCH  11  26
BRANCH  12  30
ATOM     29  O   UNL     1     -64.729 -46.334 -54.056  0.00  0.00    +0.000 OA
ATOM     30  C   UNL     1     -65.095 -47.446 -54.418  0.00  0.00    +0.000 C 
BRANCH  30  31
ATOM     31  O   UNL     1     -65.075 -48.611 -53.706  0.00  0.00    +0.000 OA
ATOM     32  C   UNL     1     -64.017 -49.505 -53.929  0.00  0.00    +0.000 C 
ENDBRANCH  30  31
ENDBRANCH  12  30
TORSDOF 4
ENDMDL
MODEL 8
REMARK VINA RESULT:      -5.7      9.787     13.500
REMARK  Name = 5326018_Caulerpin.pdbqt.pdb
REMARK  4 active torsions:
REMARK  status: ('A' for Active; 'I' for Inactive)
REMARK    1  A    between atoms: C_11  and  C_26
REMARK    2  A    between atoms: C_12  and  C_30
REMARK    3  A    between atoms: C_26  and  O_27
REMARK    4  A    between atoms: C_30  and  O_31
REMARK                            x       y       z     vdW  Elec       q    Type
REMARK                         _______ _______ _______ _____ _____    ______ ____
ROOT
ATOM      1  N   UNL     1     -68.674 -60.198 -68.290  0.00  0.00    +0.000 N 
ATOM      2  N   UNL     1     -64.615 -61.469 -73.249  0.00  0.00    +0.000 N 
ATOM      3  C   UNL     1     -66.777 -61.127 -68.962  0.00  0.00    +0.000 C 
ATOM      4  C   UNL     1     -66.661 -60.911 -72.604  0.00  0.00    +0.000 C 
ATOM      5  C   UNL     1     -68.017 -60.673 -69.406  0.00  0.00    +0.000 C 
ATOM      6  C   UNL     1     -65.474 -61.494 -72.170  0.00  0.00    +0.000 C 
ATOM      7  C   UNL     1     -66.711 -60.986 -67.555  0.00  0.00    +0.000 A 
ATOM      8  C   UNL     1     -66.542 -60.589 -73.978  0.00  0.00    +0.000 A 
ATOM      9  C   UNL     1     -67.915 -60.405 -67.158  0.00  0.00    +0.000 A 
ATOM     10  C   UNL     1     -65.251 -60.954 -74.359  0.00  0.00    +0.000 A 
ATOM     11  C   UNL     1     -68.593 -60.574 -70.721  0.00  0.00    +0.000 C 
ATOM     12  C   UNL     1     -65.054 -61.983 -70.882  0.00  0.00    +0.000 C 
ATOM     13  C   UNL     1     -67.774 -60.683 -71.736  0.00  0.00    +0.000 C 
ATOM     14  C   UNL     1     -65.771 -61.623 -69.849  0.00  0.00    +0.000 C 
ATOM     15  C   UNL     1     -65.741 -61.276 -66.578  0.00  0.00    +0.000 A 
ATOM     16  C   UNL     1     -67.395 -60.008 -74.935  0.00  0.00    +0.000 A 
ATOM     17  C   UNL     1     -68.205 -60.101 -65.823  0.00  0.00    +0.000 A 
ATOM     18  C   UNL     1     -64.766 -60.771 -75.659  0.00  0.00    +0.000 A 
ATOM     19  C   UNL     1     -66.017 -60.985 -65.240  0.00  0.00    +0.000 A 
ATOM     20  C   UNL     1     -66.928 -59.823 -76.237  0.00  0.00    +0.000 A 
ATOM     21  C   UNL     1     -67.228 -60.408 -64.873  0.00  0.00    +0.000 A 
ATOM     22  C   UNL     1     -65.636 -60.201 -76.590  0.00  0.00    +0.000 A 
ATOM     23  H   UNL     1     -69.579 -59.746 -68.267  0.00  0.00    +0.000 HD
ATOM     24  H   UNL     1     -63.648 -61.767 -73.261  0.00  0.00    +0.000 HD
ENDROOT
BRANCH  11  26
ATOM     25  O   UNL     1     -70.921 -60.645 -70.173  0.00  0.00    +0.000 OA
ATOM     26  C   UNL     1     -70.051 -60.489 -71.022  0.00  0.00    +0.000 C 
BRANCH  26  27
ATOM     27  O   UNL     1     -70.211 -60.198 -72.346  0.00  0.00    +0.000 OA
ATOM     28  C   UNL     1     -71.085 -59.157 -72.695  0.00  0.00    +0.000 C 
ENDBRANCH  26  27
ENDBRANCH  11  26
BRANCH  12  30
ATOM     29  O   UNL     1     -63.129 -63.264 -71.499  0.00  0.00    +0.000 OA
ATOM     30  C   UNL     1     -63.956 -62.965 -70.646  0.00  0.00    +0.000 C 
BRANCH  30  31
ATOM     31  O   UNL     1     -64.038 -63.415 -69.360  0.00  0.00    +0.000 OA
ATOM     32  C   UNL     1     -63.246 -64.513 -68.990  0.00  0.00    +0.000 C 
ENDBRANCH  30  31
ENDBRANCH  12  30
TORSDOF 4
ENDMDL
MODEL 9
REMARK VINA RESULT:      -5.7     39.935     44.551
REMARK  Name = 5326018_Caulerpin.pdbqt.pdb
REMARK  4 active torsions:
REMARK  status: ('A' for Active; 'I' for Inactive)
REMARK    1  A    between atoms: C_11  and  C_26
REMARK    2  A    between atoms: C_12  and  C_30
REMARK    3  A    between atoms: C_26  and  O_27
REMARK    4  A    between atoms: C_30  and  O_31
REMARK                            x       y       z     vdW  Elec       q    Type
REMARK                         _______ _______ _______ _____ _____    ______ ____
ROOT
ATOM      1  N   UNL     1     -72.154 -58.332 -26.546  0.00  0.00    +0.000 N 
ATOM      2  N   UNL     1     -74.983 -53.972 -22.587  0.00  0.00    +0.000 N 
ATOM      3  C   UNL     1     -73.595 -56.661 -26.331  0.00  0.00    +0.000 C 
ATOM      4  C   UNL     1     -73.865 -55.877 -22.776  0.00  0.00    +0.000 C 
ATOM      5  C   UNL     1     -72.909 -57.644 -25.619  0.00  0.00    +0.000 C 
ATOM      6  C   UNL     1     -74.663 -54.977 -23.477  0.00  0.00    +0.000 C 
ATOM      7  C   UNL     1     -73.301 -56.800 -27.708  0.00  0.00    +0.000 A 
ATOM      8  C   UNL     1     -73.755 -55.446 -21.431  0.00  0.00    +0.000 A 
ATOM      9  C   UNL     1     -72.399 -57.857 -27.817  0.00  0.00    +0.000 A 
ATOM     10  C   UNL     1     -74.469 -54.252 -21.338  0.00  0.00    +0.000 A 
ATOM     11  C   UNL     1     -72.836 -57.942 -24.213  0.00  0.00    +0.000 C 
ATOM     12  C   UNL     1     -75.077 -54.925 -24.855  0.00  0.00    +0.000 C 
ATOM     13  C   UNL     1     -73.266 -57.021 -23.389  0.00  0.00    +0.000 C 
ATOM     14  C   UNL     1     -74.427 -55.686 -25.697  0.00  0.00    +0.000 C 
ATOM     15  C   UNL     1     -73.697 -56.121 -28.876  0.00  0.00    +0.000 A 
ATOM     16  C   UNL     1     -73.106 -55.941 -20.285  0.00  0.00    +0.000 A 
ATOM     17  C   UNL     1     -71.870 -58.279 -29.042  0.00  0.00    +0.000 A 
ATOM     18  C   UNL     1     -74.573 -53.522 -20.149  0.00  0.00    +0.000 A 
ATOM     19  C   UNL     1     -73.183 -56.532 -30.108  0.00  0.00    +0.000 A 
ATOM     20  C   UNL     1     -73.204 -55.228 -19.089  0.00  0.00    +0.000 A 
ATOM     21  C   UNL     1     -72.287 -57.593 -30.186  0.00  0.00    +0.000 A 
ATOM     22  C   UNL     1     -73.927 -54.041 -19.025  0.00  0.00    +0.000 A 
ATOM     23  H   UNL     1     -71.495 -59.076 -26.357  0.00  0.00    +0.000 HD
ATOM     24  H   UNL     1     -75.508 -53.129 -22.787  0.00  0.00    +0.000 HD
ENDROOT
BRANCH  11  26
ATOM     25  O   UNL     1     -71.686 -59.356 -22.663  0.00  0.00    +0.000 OA
ATOM     26  C   UNL     1     -72.435 -59.254 -23.627  0.00  0.00    +0.000 C 
BRANCH  26  27
ATOM     27  O   UNL     1     -73.051 -60.253 -24.323  0.00  0.00    +0.000 OA
ATOM     28  C   UNL     1     -72.325 -61.424 -24.586  0.00  0.00    +0.000 C 
ENDBRANCH  26  27
ENDBRANCH  11  26
BRANCH  12  30
ATOM     29  O   UNL     1     -77.170 -53.781 -24.657  0.00  0.00    +0.000 OA
ATOM     30  C   UNL     1     -76.261 -54.181 -25.375  0.00  0.00    +0.000 C 
BRANCH  30  31
ATOM     31  O   UNL     1     -76.123 -54.023 -26.724  0.00  0.00    +0.000 OA
ATOM     32  C   UNL     1     -76.071 -52.718 -27.237  0.00  0.00    +0.000 C 
ENDBRANCH  30  31
ENDBRANCH  12  30
TORSDOF 4
ENDMDL
