MODEL 1
REMARK VINA RESULT:      -3.1      0.000      0.000
REMARK  Name = 5350_Sulforaphane.pdbqt.pdb
REMARK  3 active torsions:
REMARK  status: ('A' for Active; 'I' for Inactive)
REMARK    1  A    between atoms: C_1  and  C_2
REMARK    2  A    between atoms: C_3  and  N_5
REMARK    3  A    between atoms: C_7  and  S_8
REMARK                            x       y       z     vdW  Elec       q    Type
REMARK                         _______ _______ _______ _____ _____    ______ ____
ROOT
ATOM      1  C   UNL     1     -68.151 -57.279 -35.491  0.00  0.00    +0.000 C 
ATOM      2  C   UNL     1     -68.369 -57.488 -33.989  0.00  0.00    +0.000 C 
ENDROOT
BRANCH   2   3
ATOM      3  S   UNL     1     -68.616 -57.726 -32.261  0.00  0.00    +0.000 S 
ATOM      4  O   UNL     1     -67.343 -58.509 -32.131  0.00  0.00    +0.000 OA
ATOM      5  C   UNL     1     -69.569 -59.188 -32.493  0.00  0.00    +0.000 C 
ENDBRANCH   2   3
BRANCH   1   6
ATOM      6  C   UNL     1     -67.932 -57.074 -36.993  0.00  0.00    +0.000 C 
ATOM      7  C   UNL     1     -67.714 -56.869 -38.497  0.00  0.00    +0.000 C 
BRANCH   7   9
ATOM      8  S   UNL     1     -66.949 -54.045 -40.405  0.00  0.00    +0.000 S 
ATOM      9  N   UNL     1     -67.509 -56.689 -39.809  0.00  0.00    +0.000 NA
ATOM     10  C   UNL     1     -67.273 -55.563 -40.041  0.00  0.00    +0.000 C 
ENDBRANCH   7   9
ENDBRANCH   1   6
TORSDOF 3
ENDMDL
MODEL 2
REMARK VINA RESULT:      -2.9      8.545     12.008
REMARK  Name = 5350_Sulforaphane.pdbqt.pdb
REMARK  3 active torsions:
REMARK  status: ('A' for Active; 'I' for Inactive)
REMARK    1  A    between atoms: C_1  and  C_2
REMARK    2  A    between atoms: C_3  and  N_5
REMARK    3  A    between atoms: C_7  and  S_8
REMARK                            x       y       z     vdW  Elec       q    Type
REMARK                         _______ _______ _______ _____ _____    ______ ____
ROOT
ATOM      1  C   UNL     1     -71.382 -57.205 -27.927  0.00  0.00    +0.000 C 
ATOM      2  C   UNL     1     -71.162 -56.599 -29.317  0.00  0.00    +0.000 C 
ENDROOT
BRANCH   2   3
ATOM      3  S   UNL     1     -70.907 -55.900 -30.914  0.00  0.00    +0.000 S 
ATOM      4  O   UNL     1     -69.618 -56.645 -31.094  0.00  0.00    +0.000 OA
ATOM      5  C   UNL     1     -70.075 -54.485 -30.275  0.00  0.00    +0.000 C 
ENDBRANCH   2   3
BRANCH   1   6
ATOM      6  C   UNL     1     -71.604 -57.809 -26.537  0.00  0.00    +0.000 C 
ATOM      7  C   UNL     1     -71.826 -58.413 -25.146  0.00  0.00    +0.000 C 
BRANCH   7   9
ATOM      8  S   UNL     1     -73.343 -57.192 -22.247  0.00  0.00    +0.000 S 
ATOM      9  N   UNL     1     -72.008 -58.940 -23.927  0.00  0.00    +0.000 NA
ATOM     10  C   UNL     1     -72.575 -58.185 -23.230  0.00  0.00    +0.000 C 
ENDBRANCH   7   9
ENDBRANCH   1   6
TORSDOF 3
ENDMDL
MODEL 3
REMARK VINA RESULT:      -2.9      3.747      6.966
REMARK  Name = 5350_Sulforaphane.pdbqt.pdb
REMARK  3 active torsions:
REMARK  status: ('A' for Active; 'I' for Inactive)
REMARK    1  A    between atoms: C_1  and  C_2
REMARK    2  A    between atoms: C_3  and  N_5
REMARK    3  A    between atoms: C_7  and  S_8
REMARK                            x       y       z     vdW  Elec       q    Type
REMARK                         _______ _______ _______ _____ _____    ______ ____
ROOT
ATOM      1  C   UNL     1     -67.803 -56.781 -37.047  0.00  0.00    +0.000 C 
ATOM      2  C   UNL     1     -67.875 -56.348 -38.516  0.00  0.00    +0.000 C 
ENDROOT
BRANCH   2   3
ATOM      3  S   UNL     1     -67.962 -55.853 -40.205  0.00  0.00    +0.000 S 
ATOM      4  O   UNL     1     -66.483 -55.610 -40.266  0.00  0.00    +0.000 OA
ATOM      5  C   UNL     1     -68.289 -54.171 -39.802  0.00  0.00    +0.000 C 
ENDBRANCH   2   3
BRANCH   1   6
ATOM      6  C   UNL     1     -67.729 -57.215 -35.581  0.00  0.00    +0.000 C 
ATOM      7  C   UNL     1     -67.655 -57.650 -34.113  0.00  0.00    +0.000 C 
BRANCH   7   9
ATOM      8  S   UNL     1     -69.799 -57.139 -31.404  0.00  0.00    +0.000 S 
ATOM      9  N   UNL     1     -67.593 -58.018 -32.825  0.00  0.00    +0.000 NA
ATOM     10  C   UNL     1     -68.537 -57.637 -32.241  0.00  0.00    +0.000 C 
ENDBRANCH   7   9
ENDBRANCH   1   6
TORSDOF 3
ENDMDL
MODEL 4
REMARK VINA RESULT:      -2.9      7.468      9.741
REMARK  Name = 5350_Sulforaphane.pdbqt.pdb
REMARK  3 active torsions:
REMARK  status: ('A' for Active; 'I' for Inactive)
REMARK    1  A    between atoms: C_1  and  C_2
REMARK    2  A    between atoms: C_3  and  N_5
REMARK    3  A    between atoms: C_7  and  S_8
REMARK                            x       y       z     vdW  Elec       q    Type
REMARK                         _______ _______ _______ _____ _____    ______ ____
ROOT
ATOM      1  C   UNL     1     -71.549 -57.765 -26.509  0.00  0.00    +0.000 C 
ATOM      2  C   UNL     1     -71.821 -58.440 -25.160  0.00  0.00    +0.000 C 
ENDROOT
BRANCH   2   3
ATOM      3  S   UNL     1     -72.131 -59.214 -23.608  0.00  0.00    +0.000 S 
ATOM      4  O   UNL     1     -73.425 -59.796 -24.094  0.00  0.00    +0.000 OA
ATOM      5  C   UNL     1     -72.941 -57.798 -22.946  0.00  0.00    +0.000 C 
ENDBRANCH   2   3
BRANCH   1   6
ATOM      6  C   UNL     1     -71.276 -57.093 -27.857  0.00  0.00    +0.000 C 
ATOM      7  C   UNL     1     -71.002 -56.420 -29.207  0.00  0.00    +0.000 C 
BRANCH   7   9
ATOM      8  S   UNL     1     -69.133 -57.400 -31.989  0.00  0.00    +0.000 S 
ATOM      9  N   UNL     1     -70.750 -55.830 -30.384  0.00  0.00    +0.000 NA
ATOM     10  C   UNL     1     -70.064 -56.511 -31.050  0.00  0.00    +0.000 C 
ENDBRANCH   7   9
ENDBRANCH   1   6
TORSDOF 3
ENDMDL
MODEL 5
REMARK VINA RESULT:      -2.9     40.737     43.511
REMARK  Name = 5350_Sulforaphane.pdbqt.pdb
REMARK  3 active torsions:
REMARK  status: ('A' for Active; 'I' for Inactive)
REMARK    1  A    between atoms: C_1  and  C_2
REMARK    2  A    between atoms: C_3  and  N_5
REMARK    3  A    between atoms: C_7  and  S_8
REMARK                            x       y       z     vdW  Elec       q    Type
REMARK                         _______ _______ _______ _____ _____    ______ ____
ROOT
ATOM      1  C   UNL     1     -52.004 -62.198 -75.628  0.00  0.00    +0.000 C 
ATOM      2  C   UNL     1     -52.799 -63.036 -74.622  0.00  0.00    +0.000 C 
ENDROOT
BRANCH   2   3
ATOM      3  S   UNL     1     -53.712 -63.997 -73.461  0.00  0.00    +0.000 S 
ATOM      4  O   UNL     1     -54.490 -62.800 -72.999  0.00  0.00    +0.000 OA
ATOM      5  C   UNL     1     -52.512 -63.790 -72.189  0.00  0.00    +0.000 C 
ENDBRANCH   2   3
BRANCH   1   6
ATOM      6  C   UNL     1     -51.208 -61.362 -76.634  0.00  0.00    +0.000 C 
ATOM      7  C   UNL     1     -50.410 -60.526 -77.642  0.00  0.00    +0.000 C 
BRANCH   7   9
ATOM      8  S   UNL     1     -50.141 -60.607 -81.123  0.00  0.00    +0.000 S 
ATOM      9  N   UNL     1     -49.703 -59.794 -78.514  0.00  0.00    +0.000 NA
ATOM     10  C   UNL     1     -49.903 -60.153 -79.613  0.00  0.00    +0.000 C 
ENDBRANCH   7   9
ENDBRANCH   1   6
TORSDOF 3
ENDMDL
MODEL 6
REMARK VINA RESULT:      -2.8     40.618     42.961
REMARK  Name = 5350_Sulforaphane.pdbqt.pdb
REMARK  3 active torsions:
REMARK  status: ('A' for Active; 'I' for Inactive)
REMARK    1  A    between atoms: C_1  and  C_2
REMARK    2  A    between atoms: C_3  and  N_5
REMARK    3  A    between atoms: C_7  and  S_8
REMARK                            x       y       z     vdW  Elec       q    Type
REMARK                         _______ _______ _______ _____ _____    ______ ____
ROOT
ATOM      1  C   UNL     1     -51.778 -62.374 -75.618  0.00  0.00    +0.000 C 
ATOM      2  C   UNL     1     -50.760 -61.875 -76.649  0.00  0.00    +0.000 C 
ENDROOT
BRANCH   2   3
ATOM      3  S   UNL     1     -49.593 -61.298 -77.836  0.00  0.00    +0.000 S 
ATOM      4  O   UNL     1     -48.934 -62.642 -77.922  0.00  0.00    +0.000 OA
ATOM      5  C   UNL     1     -48.459 -60.748 -76.607  0.00  0.00    +0.000 C 
ENDBRANCH   2   3
BRANCH   1   6
ATOM      6  C   UNL     1     -52.795 -62.876 -74.589  0.00  0.00    +0.000 C 
ATOM      7  C   UNL     1     -53.814 -63.378 -73.559  0.00  0.00    +0.000 C 
BRANCH   7   9
ATOM      8  S   UNL     1     -55.153 -66.544 -72.946  0.00  0.00    +0.000 S 
ATOM      9  N   UNL     1     -54.701 -63.829 -72.661  0.00  0.00    +0.000 NA
ATOM     10  C   UNL     1     -54.878 -64.981 -72.798  0.00  0.00    +0.000 C 
ENDBRANCH   7   9
ENDBRANCH   1   6
TORSDOF 3
ENDMDL
MODEL 7
REMARK VINA RESULT:      -2.8     57.645     58.987
REMARK  Name = 5350_Sulforaphane.pdbqt.pdb
REMARK  3 active torsions:
REMARK  status: ('A' for Active; 'I' for Inactive)
REMARK    1  A    between atoms: C_1  and  C_2
REMARK    2  A    between atoms: C_3  and  N_5
REMARK    3  A    between atoms: C_7  and  S_8
REMARK                            x       y       z     vdW  Elec       q    Type
REMARK                         _______ _______ _______ _____ _____    ______ ____
ROOT
ATOM      1  C   UNL     1     -54.624 -64.511 -93.013  0.00  0.00    +0.000 C 
ATOM      2  C   UNL     1     -54.759 -63.043 -92.593  0.00  0.00    +0.000 C 
ENDROOT
BRANCH   2   3
ATOM      3  S   UNL     1     -54.915 -61.357 -92.107  0.00  0.00    +0.000 S 
ATOM      4  O   UNL     1     -54.898 -61.718 -90.651  0.00  0.00    +0.000 OA
ATOM      5  C   UNL     1     -56.674 -61.395 -92.163  0.00  0.00    +0.000 C 
ENDBRANCH   2   3
BRANCH   1   6
ATOM      6  C   UNL     1     -54.493 -65.977 -93.433  0.00  0.00    +0.000 C 
ATOM      7  C   UNL     1     -54.361 -67.446 -93.855  0.00  0.00    +0.000 C 
BRANCH   7   9
ATOM      8  S   UNL     1     -52.602 -70.145 -92.508  0.00  0.00    +0.000 S 
ATOM      9  N   UNL     1     -54.237 -68.726 -94.232  0.00  0.00    +0.000 NA
ATOM     10  C   UNL     1     -53.541 -69.310 -93.489  0.00  0.00    +0.000 C 
ENDBRANCH   7   9
ENDBRANCH   1   6
TORSDOF 3
ENDMDL
MODEL 8
REMARK VINA RESULT:      -2.8     13.069     16.054
REMARK  Name = 5350_Sulforaphane.pdbqt.pdb
REMARK  3 active torsions:
REMARK  status: ('A' for Active; 'I' for Inactive)
REMARK    1  A    between atoms: C_1  and  C_2
REMARK    2  A    between atoms: C_3  and  N_5
REMARK    3  A    between atoms: C_7  and  S_8
REMARK                            x       y       z     vdW  Elec       q    Type
REMARK                         _______ _______ _______ _____ _____    ______ ____
ROOT
ATOM      1  C   UNL     1     -73.072 -57.328 -22.587  0.00  0.00    +0.000 C 
ATOM      2  C   UNL     1     -72.934 -58.230 -23.818  0.00  0.00    +0.000 C 
ENDROOT
BRANCH   2   3
ATOM      3  S   UNL     1     -72.779 -59.266 -25.235  0.00  0.00    +0.000 S 
ATOM      4  O   UNL     1     -72.191 -60.381 -24.423  0.00  0.00    +0.000 OA
ATOM      5  C   UNL     1     -71.186 -58.638 -25.646  0.00  0.00    +0.000 C 
ENDBRANCH   2   3
BRANCH   1   6
ATOM      6  C   UNL     1     -73.211 -56.427 -21.356  0.00  0.00    +0.000 C 
ATOM      7  C   UNL     1     -73.351 -55.526 -20.124  0.00  0.00    +0.000 C 
BRANCH   7   9
ATOM      8  S   UNL     1     -73.324 -52.057 -19.720  0.00  0.00    +0.000 S 
ATOM      9  N   UNL     1     -73.485 -54.737 -19.049  0.00  0.00    +0.000 NA
ATOM     10  C   UNL     1     -73.414 -53.606 -19.354  0.00  0.00    +0.000 C 
ENDBRANCH   7   9
ENDBRANCH   1   6
TORSDOF 3
ENDMDL
MODEL 9
REMARK VINA RESULT:      -2.7     47.303     49.287
REMARK  Name = 5350_Sulforaphane.pdbqt.pdb
REMARK  3 active torsions:
REMARK  status: ('A' for Active; 'I' for Inactive)
REMARK    1  A    between atoms: C_1  and  C_2
REMARK    2  A    between atoms: C_3  and  N_5
REMARK    3  A    between atoms: C_7  and  S_8
REMARK                            x       y       z     vdW  Elec       q    Type
REMARK                         _______ _______ _______ _____ _____    ______ ____
ROOT
ATOM      1  C   UNL     1     -60.281 -66.566 -83.826  0.00  0.00    +0.000 C 
ATOM      2  C   UNL     1     -60.984 -66.286 -85.158  0.00  0.00    +0.000 C 
ENDROOT
BRANCH   2   3
ATOM      3  S   UNL     1     -61.796 -65.961 -86.688  0.00  0.00    +0.000 S 
ATOM      4  O   UNL     1     -60.500 -65.974 -87.442  0.00  0.00    +0.000 OA
ATOM      5  C   UNL     1     -61.729 -64.215 -86.471  0.00  0.00    +0.000 C 
ENDBRANCH   2   3
BRANCH   1   6
ATOM      6  C   UNL     1     -59.579 -66.849 -82.495  0.00  0.00    +0.000 C 
ATOM      7  C   UNL     1     -58.876 -67.132 -81.162  0.00  0.00    +0.000 C 
BRANCH   7   9
ATOM      8  S   UNL     1     -57.097 -69.884 -79.956  0.00  0.00    +0.000 S 
ATOM      9  N   UNL     1     -58.274 -67.380 -79.991  0.00  0.00    +0.000 NA
ATOM     10  C   UNL     1     -57.781 -68.445 -79.996  0.00  0.00    +0.000 C 
ENDBRANCH   7   9
ENDBRANCH   1   6
TORSDOF 3
ENDMDL
