MODEL 1
REMARK VINA RESULT:      -4.3      0.000      0.000
REMARK  Name = 5357283_Methylferulate.pdbqt.pdb
REMARK  5 active torsions:
REMARK  status: ('A' for Active; 'I' for Inactive)
REMARK    1  A    between atoms: C_1  and  C_11
REMARK    2  A    between atoms: C_2  and  O_7
REMARK    3  A    between atoms: C_5  and  O_9
REMARK    4  A    between atoms: C_12  and  C_14
REMARK    5  A    between atoms: C_14  and  O_15
REMARK                            x       y       z     vdW  Elec       q    Type
REMARK                         _______ _______ _______ _____ _____    ______ ____
ROOT
ATOM      1  C   UNL     1     -68.621 -57.695 -33.017  0.00  0.00    +0.000 A 
ATOM      2  C   UNL     1     -68.149 -57.791 -35.394  0.00  0.00    +0.000 A 
ATOM      3  C   UNL     1     -68.753 -57.164 -34.300  0.00  0.00    +0.000 A 
ATOM      4  C   UNL     1     -67.884 -58.859 -32.815  0.00  0.00    +0.000 A 
ATOM      5  C   UNL     1     -67.413 -58.958 -35.176  0.00  0.00    +0.000 A 
ATOM      6  C   UNL     1     -67.278 -59.492 -33.896  0.00  0.00    +0.000 A 
ENDROOT
BRANCH   2   7
ATOM      7  O   UNL     1     -68.230 -57.335 -36.688  0.00  0.00    +0.000 OA
ATOM      8  C   UNL     1     -69.504 -56.914 -37.100  0.00  0.00    +0.000 C 
ENDBRANCH   2   7
BRANCH   5   9
ATOM      9  O   UNL     1     -66.813 -59.585 -36.234  0.00  0.00    +0.000 OA
ATOM     10  H   UNL     1     -67.330 -59.402 -37.040  0.00  0.00    +0.000 HD
ENDBRANCH   5   9
BRANCH   1  11
ATOM     11  C   UNL     1     -69.245 -57.043 -31.913  0.00  0.00    +0.000 C 
ATOM     12  C   UNL     1     -69.769 -56.493 -30.981  0.00  0.00    +0.000 C 
BRANCH  12  14
ATOM     13  O   UNL     1     -69.805 -54.940 -29.270  0.00  0.00    +0.000 OA
ATOM     14  C   UNL     1     -70.397 -55.835 -29.859  0.00  0.00    +0.000 C 
BRANCH  14  15
ATOM     15  O   UNL     1     -71.637 -56.352 -29.614  0.00  0.00    +0.000 OA
ATOM     16  C   UNL     1     -71.719 -57.546 -28.878  0.00  0.00    +0.000 C 
ENDBRANCH  14  15
ENDBRANCH  12  14
ENDBRANCH   1  11
TORSDOF 5
ENDMDL
MODEL 2
REMARK VINA RESULT:      -4.2     26.040     28.369
REMARK  Name = 5357283_Methylferulate.pdbqt.pdb
REMARK  5 active torsions:
REMARK  status: ('A' for Active; 'I' for Inactive)
REMARK    1  A    between atoms: C_1  and  C_11
REMARK    2  A    between atoms: C_2  and  O_7
REMARK    3  A    between atoms: C_5  and  O_9
REMARK    4  A    between atoms: C_12  and  C_14
REMARK    5  A    between atoms: C_14  and  O_15
REMARK                            x       y       z     vdW  Elec       q    Type
REMARK                         _______ _______ _______ _____ _____    ______ ____
ROOT
ATOM      1  C   UNL     1     -64.376 -46.764 -59.026  0.00  0.00    +0.000 A 
ATOM      2  C   UNL     1     -62.007 -46.359 -58.707  0.00  0.00    +0.000 A 
ATOM      3  C   UNL     1     -63.319 -46.334 -58.226  0.00  0.00    +0.000 A 
ATOM      4  C   UNL     1     -64.132 -47.223 -60.319  0.00  0.00    +0.000 A 
ATOM      5  C   UNL     1     -61.777 -46.822 -60.005  0.00  0.00    +0.000 A 
ATOM      6  C   UNL     1     -62.831 -47.253 -60.810  0.00  0.00    +0.000 A 
ENDROOT
BRANCH   2   7
ATOM      7  O   UNL     1     -60.910 -45.954 -57.985  0.00  0.00    +0.000 OA
ATOM      8  C   UNL     1     -60.676 -44.570 -57.970  0.00  0.00    +0.000 C 
ENDBRANCH   2   7
BRANCH   5   9
ATOM      9  O   UNL     1     -60.499 -46.855 -60.494  0.00  0.00    +0.000 OA
ATOM     10  H   UNL     1     -60.537 -46.987 -61.459  0.00  0.00    +0.000 HD
ENDBRANCH   5   9
BRANCH   1  11
ATOM     11  C   UNL     1     -65.708 -46.731 -58.520  0.00  0.00    +0.000 C 
ATOM     12  C   UNL     1     -66.832 -46.705 -58.093  0.00  0.00    +0.000 C 
BRANCH  12  14
ATOM     13  O   UNL     1     -68.583 -45.688 -56.978  0.00  0.00    +0.000 OA
ATOM     14  C   UNL     1     -68.184 -46.673 -57.584  0.00  0.00    +0.000 C 
BRANCH  14  15
ATOM     15  O   UNL     1     -68.850 -47.828 -57.881  0.00  0.00    +0.000 OA
ATOM     16  C   UNL     1     -68.568 -48.967 -57.107  0.00  0.00    +0.000 C 
ENDBRANCH  14  15
ENDBRANCH  12  14
ENDBRANCH   1  11
TORSDOF 5
ENDMDL
MODEL 3
REMARK VINA RESULT:      -4.2     28.143     29.315
REMARK  Name = 5357283_Methylferulate.pdbqt.pdb
REMARK  5 active torsions:
REMARK  status: ('A' for Active; 'I' for Inactive)
REMARK    1  A    between atoms: C_1  and  C_11
REMARK    2  A    between atoms: C_2  and  O_7
REMARK    3  A    between atoms: C_5  and  O_9
REMARK    4  A    between atoms: C_12  and  C_14
REMARK    5  A    between atoms: C_14  and  O_15
REMARK                            x       y       z     vdW  Elec       q    Type
REMARK                         _______ _______ _______ _____ _____    ______ ____
ROOT
ATOM      1  C   UNL     1     -64.728 -46.903 -59.785  0.00  0.00    +0.000 A 
ATOM      2  C   UNL     1     -62.676 -46.234 -58.680  0.00  0.00    +0.000 A 
ATOM      3  C   UNL     1     -64.071 -46.313 -58.707  0.00  0.00    +0.000 A 
ATOM      4  C   UNL     1     -63.996 -47.422 -60.851  0.00  0.00    +0.000 A 
ATOM      5  C   UNL     1     -61.954 -46.759 -59.756  0.00  0.00    +0.000 A 
ATOM      6  C   UNL     1     -62.606 -47.351 -60.837  0.00  0.00    +0.000 A 
ENDROOT
BRANCH   2   7
ATOM      7  O   UNL     1     -61.951 -45.670 -57.658  0.00  0.00    +0.000 OA
ATOM      8  C   UNL     1     -62.554 -44.569 -57.030  0.00  0.00    +0.000 C 
ENDBRANCH   2   7
BRANCH   5   9
ATOM      9  O   UNL     1     -60.587 -46.693 -59.748  0.00  0.00    +0.000 OA
ATOM     10  H   UNL     1     -60.318 -45.765 -59.872  0.00  0.00    +0.000 HD
ENDBRANCH   5   9
BRANCH   1  11
ATOM     11  C   UNL     1     -66.152 -46.973 -59.796  0.00  0.00    +0.000 C 
ATOM     12  C   UNL     1     -67.353 -47.032 -59.807  0.00  0.00    +0.000 C 
BRANCH  12  14
ATOM     13  O   UNL     1     -69.409 -47.249 -58.773  0.00  0.00    +0.000 OA
ATOM     14  C   UNL     1     -68.796 -47.100 -59.822  0.00  0.00    +0.000 C 
BRANCH  14  15
ATOM     15  O   UNL     1     -69.282 -46.979 -61.092  0.00  0.00    +0.000 OA
ATOM     16  C   UNL     1     -69.508 -45.684 -61.590  0.00  0.00    +0.000 C 
ENDBRANCH  14  15
ENDBRANCH  12  14
ENDBRANCH   1  11
TORSDOF 5
ENDMDL
MODEL 4
REMARK VINA RESULT:      -4.1      2.970      6.777
REMARK  Name = 5357283_Methylferulate.pdbqt.pdb
REMARK  5 active torsions:
REMARK  status: ('A' for Active; 'I' for Inactive)
REMARK    1  A    between atoms: C_1  and  C_11
REMARK    2  A    between atoms: C_2  and  O_7
REMARK    3  A    between atoms: C_5  and  O_9
REMARK    4  A    between atoms: C_12  and  C_14
REMARK    5  A    between atoms: C_14  and  O_15
REMARK                            x       y       z     vdW  Elec       q    Type
REMARK                         _______ _______ _______ _____ _____    ______ ____
ROOT
ATOM      1  C   UNL     1     -67.767 -57.646 -36.478  0.00  0.00    +0.000 A 
ATOM      2  C   UNL     1     -67.503 -58.341 -34.169  0.00  0.00    +0.000 A 
ATOM      3  C   UNL     1     -67.648 -57.331 -35.125  0.00  0.00    +0.000 A 
ATOM      4  C   UNL     1     -67.741 -58.976 -36.890  0.00  0.00    +0.000 A 
ATOM      5  C   UNL     1     -67.480 -59.671 -34.598  0.00  0.00    +0.000 A 
ATOM      6  C   UNL     1     -67.598 -59.991 -35.950  0.00  0.00    +0.000 A 
ENDROOT
BRANCH   2   7
ATOM      7  O   UNL     1     -67.381 -58.117 -32.819  0.00  0.00    +0.000 OA
ATOM      8  C   UNL     1     -68.541 -57.656 -32.178  0.00  0.00    +0.000 C 
ENDBRANCH   2   7
BRANCH   5   9
ATOM      9  O   UNL     1     -67.340 -60.674 -33.678  0.00  0.00    +0.000 OA
ATOM     10  H   UNL     1     -67.831 -61.456 -33.990  0.00  0.00    +0.000 HD
ENDBRANCH   5   9
BRANCH   1  11
ATOM     11  C   UNL     1     -67.913 -56.603 -37.439  0.00  0.00    +0.000 C 
ATOM     12  C   UNL     1     -68.036 -55.722 -38.248  0.00  0.00    +0.000 C 
BRANCH  12  14
ATOM     13  O   UNL     1     -69.310 -54.330 -39.582  0.00  0.00    +0.000 OA
ATOM     14  C   UNL     1     -68.190 -54.664 -39.220  0.00  0.00    +0.000 C 
BRANCH  14  15
ATOM     15  O   UNL     1     -66.977 -54.170 -39.607  0.00  0.00    +0.000 OA
ATOM     16  C   UNL     1     -66.807 -53.830 -40.960  0.00  0.00    +0.000 C 
ENDBRANCH  14  15
ENDBRANCH  12  14
ENDBRANCH   1  11
TORSDOF 5
ENDMDL
MODEL 5
REMARK VINA RESULT:      -4.1     38.212     41.995
REMARK  Name = 5357283_Methylferulate.pdbqt.pdb
REMARK  5 active torsions:
REMARK  status: ('A' for Active; 'I' for Inactive)
REMARK    1  A    between atoms: C_1  and  C_11
REMARK    2  A    between atoms: C_2  and  O_7
REMARK    3  A    between atoms: C_5  and  O_9
REMARK    4  A    between atoms: C_12  and  C_14
REMARK    5  A    between atoms: C_14  and  O_15
REMARK                            x       y       z     vdW  Elec       q    Type
REMARK                         _______ _______ _______ _____ _____    ______ ____
ROOT
ATOM      1  C   UNL     1     -65.456 -60.853 -73.906  0.00  0.00    +0.000 A 
ATOM      2  C   UNL     1     -64.865 -61.320 -71.600  0.00  0.00    +0.000 A 
ATOM      3  C   UNL     1     -64.655 -61.507 -72.970  0.00  0.00    +0.000 A 
ATOM      4  C   UNL     1     -66.476 -60.005 -73.481  0.00  0.00    +0.000 A 
ATOM      5  C   UNL     1     -65.892 -60.466 -71.190  0.00  0.00    +0.000 A 
ATOM      6  C   UNL     1     -66.695 -59.811 -72.121  0.00  0.00    +0.000 A 
ENDROOT
BRANCH   2   7
ATOM      7  O   UNL     1     -64.123 -61.925 -70.614  0.00  0.00    +0.000 OA
ATOM      8  C   UNL     1     -63.596 -63.183 -70.943  0.00  0.00    +0.000 C 
ENDBRANCH   2   7
BRANCH   5   9
ATOM      9  O   UNL     1     -66.113 -60.270 -69.853  0.00  0.00    +0.000 OA
ATOM     10  H   UNL     1     -65.653 -59.456 -69.577  0.00  0.00    +0.000 HD
ENDBRANCH   5   9
BRANCH   1  11
ATOM     11  C   UNL     1     -65.228 -61.057 -75.298  0.00  0.00    +0.000 C 
ATOM     12  C   UNL     1     -65.035 -61.229 -76.472  0.00  0.00    +0.000 C 
BRANCH  12  14
ATOM     13  O   UNL     1     -65.593 -60.997 -78.703  0.00  0.00    +0.000 OA
ATOM     14  C   UNL     1     -64.799 -61.437 -77.882  0.00  0.00    +0.000 C 
BRANCH  14  15
ATOM     15  O   UNL     1     -63.648 -62.140 -78.092  0.00  0.00    +0.000 OA
ATOM     16  C   UNL     1     -62.621 -61.520 -78.824  0.00  0.00    +0.000 C 
ENDBRANCH  14  15
ENDBRANCH  12  14
ENDBRANCH   1  11
TORSDOF 5
ENDMDL
MODEL 6
REMARK VINA RESULT:      -4.1     38.374     42.180
REMARK  Name = 5357283_Methylferulate.pdbqt.pdb
REMARK  5 active torsions:
REMARK  status: ('A' for Active; 'I' for Inactive)
REMARK    1  A    between atoms: C_1  and  C_11
REMARK    2  A    between atoms: C_2  and  O_7
REMARK    3  A    between atoms: C_5  and  O_9
REMARK    4  A    between atoms: C_12  and  C_14
REMARK    5  A    between atoms: C_14  and  O_15
REMARK                            x       y       z     vdW  Elec       q    Type
REMARK                         _______ _______ _______ _____ _____    ______ ____
ROOT
ATOM      1  C   UNL     1     -65.459 -60.854 -74.059  0.00  0.00    +0.000 A 
ATOM      2  C   UNL     1     -66.874 -59.945 -72.312  0.00  0.00    +0.000 A 
ATOM      3  C   UNL     1     -66.601 -60.158 -73.666  0.00  0.00    +0.000 A 
ATOM      4  C   UNL     1     -64.576 -61.345 -73.100  0.00  0.00    +0.000 A 
ATOM      5  C   UNL     1     -65.979 -60.443 -71.361  0.00  0.00    +0.000 A 
ATOM      6  C   UNL     1     -64.835 -61.139 -71.749  0.00  0.00    +0.000 A 
ENDROOT
BRANCH   2   7
ATOM      7  O   UNL     1     -67.975 -59.271 -71.841  0.00  0.00    +0.000 OA
ATOM      8  C   UNL     1     -68.792 -58.692 -72.824  0.00  0.00    +0.000 C 
ENDBRANCH   2   7
BRANCH   5   9
ATOM      9  O   UNL     1     -66.229 -60.245 -70.030  0.00  0.00    +0.000 OA
ATOM     10  H   UNL     1     -65.866 -60.998 -69.529  0.00  0.00    +0.000 HD
ENDBRANCH   5   9
BRANCH   1  11
ATOM     11  C   UNL     1     -65.196 -61.061 -75.445  0.00  0.00    +0.000 C 
ATOM     12  C   UNL     1     -64.974 -61.238 -76.613  0.00  0.00    +0.000 C 
BRANCH  12  14
ATOM     13  O   UNL     1     -65.501 -61.055 -78.856  0.00  0.00    +0.000 OA
ATOM     14  C   UNL     1     -64.703 -61.450 -78.016  0.00  0.00    +0.000 C 
BRANCH  14  15
ATOM     15  O   UNL     1     -63.517 -62.103 -78.196  0.00  0.00    +0.000 OA
ATOM     16  C   UNL     1     -62.424 -61.361 -78.675  0.00  0.00    +0.000 C 
ENDBRANCH  14  15
ENDBRANCH  12  14
ENDBRANCH   1  11
TORSDOF 5
ENDMDL
MODEL 7
REMARK VINA RESULT:      -4.0      6.863      9.898
REMARK  Name = 5357283_Methylferulate.pdbqt.pdb
REMARK  5 active torsions:
REMARK  status: ('A' for Active; 'I' for Inactive)
REMARK    1  A    between atoms: C_1  and  C_11
REMARK    2  A    between atoms: C_2  and  O_7
REMARK    3  A    between atoms: C_5  and  O_9
REMARK    4  A    between atoms: C_12  and  C_14
REMARK    5  A    between atoms: C_14  and  O_15
REMARK                            x       y       z     vdW  Elec       q    Type
REMARK                         _______ _______ _______ _____ _____    ______ ____
ROOT
ATOM      1  C   UNL     1     -72.557 -58.558 -23.895  0.00  0.00    +0.000 A 
ATOM      2  C   UNL     1     -71.986 -58.967 -26.216  0.00  0.00    +0.000 A 
ATOM      3  C   UNL     1     -72.352 -58.089 -25.192  0.00  0.00    +0.000 A 
ATOM      4  C   UNL     1     -72.396 -59.911 -23.608  0.00  0.00    +0.000 A 
ATOM      5  C   UNL     1     -71.829 -60.322 -25.913  0.00  0.00    +0.000 A 
ATOM      6  C   UNL     1     -72.032 -60.796 -24.618  0.00  0.00    +0.000 A 
ENDROOT
BRANCH   2   7
ATOM      7  O   UNL     1     -71.766 -58.588 -27.519  0.00  0.00    +0.000 OA
ATOM      8  C   UNL     1     -71.549 -57.216 -27.718  0.00  0.00    +0.000 C 
ENDBRANCH   2   7
BRANCH   5   9
ATOM      9  O   UNL     1     -71.470 -61.198 -26.902  0.00  0.00    +0.000 OA
ATOM     10  H   UNL     1     -72.278 -61.533 -27.332  0.00  0.00    +0.000 HD
ENDBRANCH   5   9
BRANCH   1  11
ATOM     11  C   UNL     1     -72.931 -57.648 -22.863  0.00  0.00    +0.000 C 
ATOM     12  C   UNL     1     -73.246 -56.882 -21.991  0.00  0.00    +0.000 C 
BRANCH  12  14
ATOM     13  O   UNL     1     -72.889 -55.801 -19.980  0.00  0.00    +0.000 OA
ATOM     14  C   UNL     1     -73.627 -55.965 -20.942  0.00  0.00    +0.000 C 
BRANCH  14  15
ATOM     15  O   UNL     1     -74.835 -55.386 -21.208  0.00  0.00    +0.000 OA
ATOM     16  C   UNL     1     -75.967 -55.894 -20.549  0.00  0.00    +0.000 C 
ENDBRANCH  14  15
ENDBRANCH  12  14
ENDBRANCH   1  11
TORSDOF 5
ENDMDL
MODEL 8
REMARK VINA RESULT:      -4.0     37.384     40.585
REMARK  Name = 5357283_Methylferulate.pdbqt.pdb
REMARK  5 active torsions:
REMARK  status: ('A' for Active; 'I' for Inactive)
REMARK    1  A    between atoms: C_1  and  C_11
REMARK    2  A    between atoms: C_2  and  O_7
REMARK    3  A    between atoms: C_5  and  O_9
REMARK    4  A    between atoms: C_12  and  C_14
REMARK    5  A    between atoms: C_14  and  O_15
REMARK                            x       y       z     vdW  Elec       q    Type
REMARK                         _______ _______ _______ _____ _____    ______ ____
ROOT
ATOM      1  C   UNL     1     -53.815 -57.681 -69.737  0.00  0.00    +0.000 A 
ATOM      2  C   UNL     1     -54.752 -59.461 -68.384  0.00  0.00    +0.000 A 
ATOM      3  C   UNL     1     -53.730 -58.963 -69.196  0.00  0.00    +0.000 A 
ATOM      4  C   UNL     1     -54.925 -56.883 -69.471  0.00  0.00    +0.000 A 
ATOM      5  C   UNL     1     -55.859 -58.649 -68.125  0.00  0.00    +0.000 A 
ATOM      6  C   UNL     1     -55.950 -57.367 -68.664  0.00  0.00    +0.000 A 
ENDROOT
BRANCH   2   7
ATOM      7  O   UNL     1     -54.746 -60.711 -67.812  0.00  0.00    +0.000 OA
ATOM      8  C   UNL     1     -54.107 -61.712 -68.559  0.00  0.00    +0.000 C 
ENDBRANCH   2   7
BRANCH   5   9
ATOM      9  O   UNL     1     -56.870 -59.119 -67.331  0.00  0.00    +0.000 OA
ATOM     10  H   UNL     1     -56.775 -58.732 -66.442  0.00  0.00    +0.000 HD
ENDBRANCH   5   9
BRANCH   1  11
ATOM     11  C   UNL     1     -52.763 -57.189 -70.565  0.00  0.00    +0.000 C 
ATOM     12  C   UNL     1     -51.877 -56.775 -71.264  0.00  0.00    +0.000 C 
BRANCH  12  14
ATOM     13  O   UNL     1     -49.808 -56.962 -72.275  0.00  0.00    +0.000 OA
ATOM     14  C   UNL     1     -50.811 -56.282 -72.106  0.00  0.00    +0.000 C 
BRANCH  14  15
ATOM     15  O   UNL     1     -51.112 -55.051 -72.614  0.00  0.00    +0.000 OA
ATOM     16  C   UNL     1     -51.173 -54.913 -74.011  0.00  0.00    +0.000 C 
ENDBRANCH  14  15
ENDBRANCH  12  14
ENDBRANCH   1  11
TORSDOF 5
ENDMDL
MODEL 9
REMARK VINA RESULT:      -3.9     43.096     46.626
REMARK  Name = 5357283_Methylferulate.pdbqt.pdb
REMARK  5 active torsions:
REMARK  status: ('A' for Active; 'I' for Inactive)
REMARK    1  A    between atoms: C_1  and  C_11
REMARK    2  A    between atoms: C_2  and  O_7
REMARK    3  A    between atoms: C_5  and  O_9
REMARK    4  A    between atoms: C_12  and  C_14
REMARK    5  A    between atoms: C_14  and  O_15
REMARK                            x       y       z     vdW  Elec       q    Type
REMARK                         _______ _______ _______ _____ _____    ______ ____
ROOT
ATOM      1  C   UNL     1     -51.094 -62.472 -75.972  0.00  0.00    +0.000 A 
ATOM      2  C   UNL     1     -50.213 -60.842 -77.537  0.00  0.00    +0.000 A 
ATOM      3  C   UNL     1     -51.189 -61.241 -76.619  0.00  0.00    +0.000 A 
ATOM      4  C   UNL     1     -50.020 -63.319 -76.236  0.00  0.00    +0.000 A 
ATOM      5  C   UNL     1     -49.141 -61.702 -77.791  0.00  0.00    +0.000 A 
ATOM      6  C   UNL     1     -49.041 -62.934 -77.147  0.00  0.00    +0.000 A 
ENDROOT
BRANCH   2   7
ATOM      7  O   UNL     1     -50.231 -59.648 -78.216  0.00  0.00    +0.000 OA
ATOM      8  C   UNL     1     -51.409 -59.381 -78.932  0.00  0.00    +0.000 C 
ENDBRANCH   2   7
BRANCH   5   9
ATOM      9  O   UNL     1     -48.174 -61.329 -78.685  0.00  0.00    +0.000 OA
ATOM     10  H   UNL     1     -47.434 -60.926 -78.195  0.00  0.00    +0.000 HD
ENDBRANCH   5   9
BRANCH   1  11
ATOM     11  C   UNL     1     -52.100 -62.863 -75.040  0.00  0.00    +0.000 C 
ATOM     12  C   UNL     1     -52.948 -63.195 -74.255  0.00  0.00    +0.000 C 
BRANCH  12  14
ATOM     13  O   UNL     1     -54.570 -62.745 -72.672  0.00  0.00    +0.000 OA
ATOM     14  C   UNL     1     -53.969 -63.595 -73.314  0.00  0.00    +0.000 C 
BRANCH  14  15
ATOM     15  O   UNL     1     -54.111 -64.953 -73.288  0.00  0.00    +0.000 OA
ATOM     16  C   UNL     1     -55.269 -65.482 -72.694  0.00  0.00    +0.000 C 
ENDBRANCH  14  15
ENDBRANCH  12  14
ENDBRANCH   1  11
TORSDOF 5
ENDMDL
