MODEL 1
REMARK VINA RESULT:      -5.7      0.000      0.000
REMARK  Name = 5358691_Yuanhuacine.pdbqt.pdb
REMARK  12 active torsions:
REMARK  status: ('A' for Active; 'I' for Inactive)
REMARK    1  A    between atoms: C_9  and  C_48
REMARK    2  A    between atoms: C_13  and  C_23
REMARK    3  A    between atoms: C_14  and  O_26
REMARK    4  A    between atoms: C_15  and  O_28
REMARK    5  A    between atoms: C_16  and  O_39
REMARK    6  A    between atoms: C_17  and  C_30
REMARK    7  A    between atoms: C_31  and  C_32
REMARK    8  A    between atoms: C_33  and  C_34
REMARK    9  A    between atoms: C_35  and  C_36
REMARK   10  A    between atoms: O_39  and  C_41
REMARK   11  A    between atoms: C_41  and  C_42
REMARK   12  A    between atoms: C_48  and  O_49
REMARK                            x       y       z     vdW  Elec       q    Type
REMARK                         _______ _______ _______ _____ _____    ______ ____
ROOT
ATOM      1  O   UNL     1     -68.077 -46.814 -51.536  0.00  0.00    +0.000 OA
ATOM      2  O   UNL     1     -64.662 -47.578 -51.634  0.00  0.00    +0.000 OA
ATOM      3  O   UNL     1     -65.103 -45.246 -51.619  0.00  0.00    +0.000 OA
ATOM      4  O   UNL     1     -63.172 -46.003 -52.598  0.00  0.00    +0.000 OA
ATOM      5  O   UNL     1     -68.515 -51.585 -53.577  0.00  0.00    +0.000 OA
ATOM      6  C   UNL     1     -66.319 -46.518 -53.061  0.00  0.00    +0.000 C 
ATOM      7  C   UNL     1     -65.495 -47.790 -52.814  0.00  0.00    +0.000 C 
ATOM      8  C   UNL     1     -67.714 -46.339 -52.771  0.00  0.00    +0.000 C 
ATOM      9  C   UNL     1     -68.879 -47.218 -52.655  0.00  0.00    +0.000 C 
ATOM     10  C   UNL     1     -65.374 -45.398 -52.978  0.00  0.00    +0.000 C 
ATOM     11  C   UNL     1     -66.362 -48.980 -52.534  0.00  0.00    +0.000 C 
ATOM     12  C   UNL     1     -64.564 -48.025 -54.042  0.00  0.00    +0.000 C 
ATOM     13  C   UNL     1     -64.019 -45.581 -53.704  0.00  0.00    +0.000 C 
ATOM     14  C   UNL     1     -67.521 -49.337 -53.438  0.00  0.00    +0.000 C 
ATOM     15  C   UNL     1     -68.807 -48.611 -53.173  0.00  0.00    +0.000 C 
ATOM     16  C   UNL     1     -64.032 -46.799 -54.613  0.00  0.00    +0.000 C 
ATOM     17  C   UNL     1     -64.087 -46.252 -51.533  0.00  0.00    +0.000 C 
ATOM     18  C   UNL     1     -66.016 -50.125 -51.772  0.00  0.00    +0.000 C 
ATOM     19  C   UNL     1     -64.010 -49.371 -54.510  0.00  0.00    +0.000 C 
ATOM     20  C   UNL     1     -67.672 -50.851 -53.070  0.00  0.00    +0.000 C 
ATOM     21  C   UNL     1     -66.663 -51.213 -52.021  0.00  0.00    +0.000 C 
ATOM     22  C   UNL     1     -66.751 -52.364 -51.073  0.00  0.00    +0.000 C 
ENDROOT
BRANCH  13  23
ATOM     23  C   UNL     1     -63.573 -44.240 -54.332  0.00  0.00    +0.000 C 
ATOM     24  C   UNL     1     -62.207 -43.596 -54.098  0.00  0.00    +0.000 C 
ATOM     25  C   UNL     1     -64.425 -43.368 -54.909  0.00  0.00    +0.000 C 
ENDBRANCH  13  23
BRANCH  14  26
ATOM     26  O   UNL     1     -67.186 -49.147 -54.796  0.00  0.00    +0.000 OA
ATOM     27  H   UNL     1     -67.175 -50.029 -55.218  0.00  0.00    +0.000 HD
ENDBRANCH  14  26
BRANCH  15  28
ATOM     28  O   UNL     1     -69.981 -49.226 -53.615  0.00  0.00    +0.000 OA
ATOM     29  H   UNL     1     -69.856 -50.104 -54.035  0.00  0.00    +0.000 HD
ENDBRANCH  15  28
BRANCH  17  30
ATOM     30  C   UNL     1     -63.388 -46.138 -50.257  0.00  0.00    +0.000 C 
ATOM     31  C   UNL     1     -62.813 -46.042 -49.208  0.00  0.00    +0.000 C 
BRANCH  31  32
ATOM     32  C   UNL     1     -62.081 -45.919 -47.869  0.00  0.00    +0.000 C 
ATOM     33  C   UNL     1     -61.506 -45.823 -46.820  0.00  0.00    +0.000 C 
BRANCH  33  34
ATOM     34  C   UNL     1     -60.771 -45.703 -45.481  0.00  0.00    +0.000 C 
ATOM     35  C   UNL     1     -60.038 -45.584 -44.143  0.00  0.00    +0.000 C 
BRANCH  35  36
ATOM     36  C   UNL     1     -59.302 -45.466 -42.803  0.00  0.00    +0.000 C 
ATOM     37  C   UNL     1     -58.568 -45.348 -41.464  0.00  0.00    +0.000 C 
ATOM     38  C   UNL     1     -57.834 -45.232 -40.125  0.00  0.00    +0.000 C 
ENDBRANCH  35  36
ENDBRANCH  33  34
ENDBRANCH  31  32
ENDBRANCH  17  30
BRANCH  16  39
ATOM     39  O   UNL     1     -63.534 -46.842 -55.926  0.00  0.00    +0.000 OA
BRANCH  39  41
ATOM     40  O   UNL     1     -65.636 -46.303 -56.683  0.00  0.00    +0.000 OA
ATOM     41  C   UNL     1     -64.466 -46.581 -56.889  0.00  0.00    +0.000 C 
BRANCH  41  42
ATOM     42  C   UNL     1     -63.872 -46.727 -58.230  0.00  0.00    +0.000 A 
ATOM     43  C   UNL     1     -64.645 -47.073 -59.337  0.00  0.00    +0.000 A 
ATOM     44  C   UNL     1     -62.503 -46.508 -58.372  0.00  0.00    +0.000 A 
ATOM     45  C   UNL     1     -64.047 -47.199 -60.589  0.00  0.00    +0.000 A 
ATOM     46  C   UNL     1     -61.907 -46.634 -59.624  0.00  0.00    +0.000 A 
ATOM     47  C   UNL     1     -62.679 -46.980 -60.731  0.00  0.00    +0.000 A 
ENDBRANCH  41  42
ENDBRANCH  39  41
ENDBRANCH  16  39
BRANCH   9  48
ATOM     48  C   UNL     1     -70.195 -46.600 -52.563  0.00  0.00    +0.000 C 
BRANCH  48  49
ATOM     49  O   UNL     1     -71.398 -46.040 -52.484  0.00  0.00    +0.000 OA
ATOM     50  H   UNL     1     -71.342 -45.171 -52.049  0.00  0.00    +0.000 HD
ENDBRANCH  48  49
ENDBRANCH   9  48
TORSDOF 12
ENDMDL
MODEL 2
REMARK VINA RESULT:      -5.7     12.396     16.584
REMARK  Name = 5358691_Yuanhuacine.pdbqt.pdb
REMARK  12 active torsions:
REMARK  status: ('A' for Active; 'I' for Inactive)
REMARK    1  A    between atoms: C_9  and  C_48
REMARK    2  A    between atoms: C_13  and  C_23
REMARK    3  A    between atoms: C_14  and  O_26
REMARK    4  A    between atoms: C_15  and  O_28
REMARK    5  A    between atoms: C_16  and  O_39
REMARK    6  A    between atoms: C_17  and  C_30
REMARK    7  A    between atoms: C_31  and  C_32
REMARK    8  A    between atoms: C_33  and  C_34
REMARK    9  A    between atoms: C_35  and  C_36
REMARK   10  A    between atoms: O_39  and  C_41
REMARK   11  A    between atoms: C_41  and  C_42
REMARK   12  A    between atoms: C_48  and  O_49
REMARK                            x       y       z     vdW  Elec       q    Type
REMARK                         _______ _______ _______ _____ _____    ______ ____
ROOT
ATOM      1  O   UNL     1     -60.714 -56.224 -58.898  0.00  0.00    +0.000 OA
ATOM      2  O   UNL     1     -57.475 -57.449 -59.414  0.00  0.00    +0.000 OA
ATOM      3  O   UNL     1     -58.827 -57.516 -61.364  0.00  0.00    +0.000 OA
ATOM      4  O   UNL     1     -57.122 -59.034 -61.144  0.00  0.00    +0.000 OA
ATOM      5  O   UNL     1     -59.676 -57.480 -53.952  0.00  0.00    +0.000 OA
ATOM      6  C   UNL     1     -59.754 -58.295 -59.437  0.00  0.00    +0.000 C 
ATOM      7  C   UNL     1     -58.441 -58.229 -58.644  0.00  0.00    +0.000 C 
ATOM      8  C   UNL     1     -60.950 -57.549 -59.166  0.00  0.00    +0.000 C 
ATOM      9  C   UNL     1     -61.554 -56.938 -57.981  0.00  0.00    +0.000 C 
ATOM     10  C   UNL     1     -59.383 -58.667 -60.808  0.00  0.00    +0.000 C 
ATOM     11  C   UNL     1     -58.612 -57.540 -57.324  0.00  0.00    +0.000 C 
ATOM     12  C   UNL     1     -57.887 -59.676 -58.477  0.00  0.00    +0.000 C 
ATOM     13  C   UNL     1     -58.343 -59.805 -60.959  0.00  0.00    +0.000 C 
ATOM     14  C   UNL     1     -59.719 -57.933 -56.372  0.00  0.00    +0.000 C 
ATOM     15  C   UNL     1     -61.057 -57.304 -56.627  0.00  0.00    +0.000 C 
ATOM     16  C   UNL     1     -58.103 -60.521 -59.641  0.00  0.00    +0.000 C 
ATOM     17  C   UNL     1     -57.505 -57.695 -60.841  0.00  0.00    +0.000 C 
ATOM     18  C   UNL     1     -57.617 -56.839 -56.595  0.00  0.00    +0.000 C 
ATOM     19  C   UNL     1     -56.979 -60.172 -57.351  0.00  0.00    +0.000 C 
ATOM     20  C   UNL     1     -59.112 -57.383 -55.038  0.00  0.00    +0.000 C 
ATOM     21  C   UNL     1     -57.792 -56.730 -55.321  0.00  0.00    +0.000 C 
ATOM     22  C   UNL     1     -57.118 -55.701 -54.474  0.00  0.00    +0.000 C 
ENDROOT
BRANCH  13  23
ATOM     23  C   UNL     1     -58.697 -60.682 -62.182  0.00  0.00    +0.000 C 
ATOM     24  C   UNL     1     -57.715 -61.627 -62.872  0.00  0.00    +0.000 C 
ATOM     25  C   UNL     1     -59.802 -60.500 -62.935  0.00  0.00    +0.000 C 
ENDBRANCH  13  23
BRANCH  14  26
ATOM     26  O   UNL     1     -59.895 -59.333 -56.343  0.00  0.00    +0.000 OA
ATOM     27  H   UNL     1     -60.267 -59.561 -55.468  0.00  0.00    +0.000 HD
ENDBRANCH  14  26
BRANCH  15  28
ATOM     28  O   UNL     1     -61.938 -57.235 -55.545  0.00  0.00    +0.000 OA
ATOM     29  H   UNL     1     -61.652 -56.646 -54.814  0.00  0.00    +0.000 HD
ENDBRANCH  15  28
BRANCH  17  30
ATOM     30  C   UNL     1     -56.587 -56.769 -61.497  0.00  0.00    +0.000 C 
ATOM     31  C   UNL     1     -55.831 -56.007 -62.034  0.00  0.00    +0.000 C 
BRANCH  31  32
ATOM     32  C   UNL     1     -54.866 -55.036 -62.719  0.00  0.00    +0.000 C 
ATOM     33  C   UNL     1     -54.109 -54.274 -63.255  0.00  0.00    +0.000 C 
BRANCH  33  34
ATOM     34  C   UNL     1     -53.143 -53.299 -63.938  0.00  0.00    +0.000 C 
ATOM     35  C   UNL     1     -52.180 -52.326 -64.620  0.00  0.00    +0.000 C 
BRANCH  35  36
ATOM     36  C   UNL     1     -51.215 -51.349 -65.302  0.00  0.00    +0.000 C 
ATOM     37  C   UNL     1     -50.252 -50.374 -65.984  0.00  0.00    +0.000 C 
ATOM     38  C   UNL     1     -49.289 -49.397 -66.667  0.00  0.00    +0.000 C 
ENDBRANCH  35  36
ENDBRANCH  33  34
ENDBRANCH  31  32
ENDBRANCH  17  30
BRANCH  16  39
ATOM     39  O   UNL     1     -58.028 -61.913 -59.471  0.00  0.00    +0.000 OA
BRANCH  39  41
ATOM     40  O   UNL     1     -59.061 -62.871 -57.655  0.00  0.00    +0.000 OA
ATOM     41  C   UNL     1     -59.088 -62.455 -58.802  0.00  0.00    +0.000 C 
BRANCH  41  42
ATOM     42  C   UNL     1     -60.272 -62.512 -59.677  0.00  0.00    +0.000 A 
ATOM     43  C   UNL     1     -61.330 -61.616 -59.533  0.00  0.00    +0.000 A 
ATOM     44  C   UNL     1     -60.313 -63.492 -60.669  0.00  0.00    +0.000 A 
ATOM     45  C   UNL     1     -62.432 -61.701 -60.381  0.00  0.00    +0.000 A 
ATOM     46  C   UNL     1     -61.415 -63.574 -61.516  0.00  0.00    +0.000 A 
ATOM     47  C   UNL     1     -62.473 -62.679 -61.372  0.00  0.00    +0.000 A 
ENDBRANCH  41  42
ENDBRANCH  39  41
ENDBRANCH  16  39
BRANCH   9  48
ATOM     48  C   UNL     1     -62.922 -56.449 -58.087  0.00  0.00    +0.000 C 
BRANCH  48  49
ATOM     49  O   UNL     1     -64.173 -56.007 -58.182  0.00  0.00    +0.000 OA
ATOM     50  H   UNL     1     -64.568 -55.912 -57.298  0.00  0.00    +0.000 HD
ENDBRANCH  48  49
ENDBRANCH   9  48
TORSDOF 12
ENDMDL
MODEL 3
REMARK VINA RESULT:      -5.7     28.108     37.169
REMARK  Name = 5358691_Yuanhuacine.pdbqt.pdb
REMARK  12 active torsions:
REMARK  status: ('A' for Active; 'I' for Inactive)
REMARK    1  A    between atoms: C_9  and  C_48
REMARK    2  A    between atoms: C_13  and  C_23
REMARK    3  A    between atoms: C_14  and  O_26
REMARK    4  A    between atoms: C_15  and  O_28
REMARK    5  A    between atoms: C_16  and  O_39
REMARK    6  A    between atoms: C_17  and  C_30
REMARK    7  A    between atoms: C_31  and  C_32
REMARK    8  A    between atoms: C_33  and  C_34
REMARK    9  A    between atoms: C_35  and  C_36
REMARK   10  A    between atoms: O_39  and  C_41
REMARK   11  A    between atoms: C_41  and  C_42
REMARK   12  A    between atoms: C_48  and  O_49
REMARK                            x       y       z     vdW  Elec       q    Type
REMARK                         _______ _______ _______ _____ _____    ______ ____
ROOT
ATOM      1  O   UNL     1     -60.516 -54.566 -15.386  0.00  0.00    +0.000 OA
ATOM      2  O   UNL     1     -63.041 -54.630 -17.812  0.00  0.00    +0.000 OA
ATOM      3  O   UNL     1     -61.579 -52.772 -18.025  0.00  0.00    +0.000 OA
ATOM      4  O   UNL     1     -63.735 -52.579 -18.783  0.00  0.00    +0.000 OA
ATOM      5  O   UNL     1     -63.918 -57.487 -12.737  0.00  0.00    +0.000 OA
ATOM      6  C   UNL     1     -62.365 -53.233 -15.940  0.00  0.00    +0.000 C 
ATOM      7  C   UNL     1     -63.362 -54.295 -16.426  0.00  0.00    +0.000 C 
ATOM      8  C   UNL     1     -61.249 -53.452 -15.065  0.00  0.00    +0.000 C 
ATOM      9  C   UNL     1     -60.916 -54.419 -14.017  0.00  0.00    +0.000 C 
ATOM     10  C   UNL     1     -62.321 -52.207 -16.989  0.00  0.00    +0.000 C 
ATOM     11  C   UNL     1     -63.268 -55.564 -15.634  0.00  0.00    +0.000 C 
ATOM     12  C   UNL     1     -64.796 -53.688 -16.384  0.00  0.00    +0.000 C 
ATOM     13  C   UNL     1     -63.681 -51.762 -17.580  0.00  0.00    +0.000 C 
ATOM     14  C   UNL     1     -63.296 -55.548 -14.122  0.00  0.00    +0.000 C 
ATOM     15  C   UNL     1     -61.983 -55.284 -13.445  0.00  0.00    +0.000 C 
ATOM     16  C   UNL     1     -64.845 -52.283 -16.756  0.00  0.00    +0.000 C 
ATOM     17  C   UNL     1     -62.656 -53.498 -18.630  0.00  0.00    +0.000 C 
ATOM     18  C   UNL     1     -63.595 -56.871 -16.077  0.00  0.00    +0.000 C 
ATOM     19  C   UNL     1     -66.103 -54.466 -16.227  0.00  0.00    +0.000 C 
ATOM     20  C   UNL     1     -63.748 -57.023 -13.862  0.00  0.00    +0.000 C 
ATOM     21  C   UNL     1     -63.906 -57.736 -15.171  0.00  0.00    +0.000 C 
ATOM     22  C   UNL     1     -63.859 -59.214 -15.383  0.00  0.00    +0.000 C 
ENDROOT
BRANCH  13  23
ATOM     23  C   UNL     1     -63.654 -50.244 -17.879  0.00  0.00    +0.000 C 
ATOM     24  C   UNL     1     -64.579 -49.551 -18.877  0.00  0.00    +0.000 C 
ATOM     25  C   UNL     1     -62.641 -49.432 -17.513  0.00  0.00    +0.000 C 
ENDBRANCH  13  23
BRANCH  14  26
ATOM     26  O   UNL     1     -64.232 -54.608 -13.638  0.00  0.00    +0.000 OA
ATOM     27  H   UNL     1     -63.852 -53.719 -13.785  0.00  0.00    +0.000 HD
ENDBRANCH  14  26
BRANCH  15  28
ATOM     28  O   UNL     1     -61.851 -55.733 -12.128  0.00  0.00    +0.000 OA
ATOM     29  H   UNL     1     -61.174 -56.431 -11.995  0.00  0.00    +0.000 HD
ENDBRANCH  15  28
BRANCH  17  30
ATOM     30  C   UNL     1     -62.245 -53.985 -19.943  0.00  0.00    +0.000 C 
ATOM     31  C   UNL     1     -61.905 -54.385 -21.022  0.00  0.00    +0.000 C 
BRANCH  31  32
ATOM     32  C   UNL     1     -61.470 -54.896 -22.398  0.00  0.00    +0.000 C 
ATOM     33  C   UNL     1     -61.129 -55.296 -23.478  0.00  0.00    +0.000 C 
BRANCH  33  34
ATOM     34  C   UNL     1     -60.694 -55.804 -24.856  0.00  0.00    +0.000 C 
ATOM     35  C   UNL     1     -60.262 -56.313 -26.233  0.00  0.00    +0.000 C 
BRANCH  35  36
ATOM     36  C   UNL     1     -59.829 -56.821 -27.613  0.00  0.00    +0.000 C 
ATOM     37  C   UNL     1     -59.398 -57.328 -28.992  0.00  0.00    +0.000 C 
ATOM     38  C   UNL     1     -58.965 -57.835 -30.372  0.00  0.00    +0.000 C 
ENDBRANCH  35  36
ENDBRANCH  33  34
ENDBRANCH  31  32
ENDBRANCH  17  30
BRANCH  16  39
ATOM     39  O   UNL     1     -65.971 -51.536 -16.371  0.00  0.00    +0.000 OA
BRANCH  39  41
ATOM     40  O   UNL     1     -66.682 -51.828 -14.205  0.00  0.00    +0.000 OA
ATOM     41  C   UNL     1     -66.018 -51.236 -15.039  0.00  0.00    +0.000 C 
BRANCH  41  42
ATOM     42  C   UNL     1     -65.181 -50.058 -14.750  0.00  0.00    +0.000 A 
ATOM     43  C   UNL     1     -63.979 -50.170 -14.051  0.00  0.00    +0.000 A 
ATOM     44  C   UNL     1     -65.619 -48.812 -15.195  0.00  0.00    +0.000 A 
ATOM     45  C   UNL     1     -63.215 -49.033 -13.799  0.00  0.00    +0.000 A 
ATOM     46  C   UNL     1     -64.853 -47.677 -14.942  0.00  0.00    +0.000 A 
ATOM     47  C   UNL     1     -63.653 -47.788 -14.244  0.00  0.00    +0.000 A 
ENDBRANCH  41  42
ENDBRANCH  39  41
ENDBRANCH  16  39
BRANCH   9  48
ATOM     48  C   UNL     1     -59.746 -54.156 -13.191  0.00  0.00    +0.000 C 
BRANCH  48  49
ATOM     49  O   UNL     1     -58.676 -53.922 -12.436  0.00  0.00    +0.000 OA
ATOM     50  H   UNL     1     -58.235 -53.101 -12.716  0.00  0.00    +0.000 HD
ENDBRANCH  48  49
ENDBRANCH   9  48
TORSDOF 12
ENDMDL
MODEL 4
REMARK VINA RESULT:      -5.6     22.035     30.820
REMARK  Name = 5358691_Yuanhuacine.pdbqt.pdb
REMARK  12 active torsions:
REMARK  status: ('A' for Active; 'I' for Inactive)
REMARK    1  A    between atoms: C_9  and  C_48
REMARK    2  A    between atoms: C_13  and  C_23
REMARK    3  A    between atoms: C_14  and  O_26
REMARK    4  A    between atoms: C_15  and  O_28
REMARK    5  A    between atoms: C_16  and  O_39
REMARK    6  A    between atoms: C_17  and  C_30
REMARK    7  A    between atoms: C_31  and  C_32
REMARK    8  A    between atoms: C_33  and  C_34
REMARK    9  A    between atoms: C_35  and  C_36
REMARK   10  A    between atoms: O_39  and  C_41
REMARK   11  A    between atoms: C_41  and  C_42
REMARK   12  A    between atoms: C_48  and  O_49
REMARK                            x       y       z     vdW  Elec       q    Type
REMARK                         _______ _______ _______ _____ _____    ______ ____
ROOT
ATOM      1  O   UNL     1     -57.535 -52.713 -25.517  0.00  0.00    +0.000 OA
ATOM      2  O   UNL     1     -61.000 -53.146 -25.252  0.00  0.00    +0.000 OA
ATOM      3  O   UNL     1     -60.263 -51.005 -24.537  0.00  0.00    +0.000 OA
ATOM      4  O   UNL     1     -62.183 -51.875 -23.634  0.00  0.00    +0.000 OA
ATOM      5  O   UNL     1     -57.544 -57.914 -25.270  0.00  0.00    +0.000 OA
ATOM      6  C   UNL     1     -59.101 -52.806 -23.772  0.00  0.00    +0.000 C 
ATOM      7  C   UNL     1     -60.101 -53.831 -24.326  0.00  0.00    +0.000 C 
ATOM      8  C   UNL     1     -57.726 -52.665 -24.159  0.00  0.00    +0.000 C 
ATOM      9  C   UNL     1     -56.699 -53.552 -24.710  0.00  0.00    +0.000 C 
ATOM     10  C   UNL     1     -59.897 -51.646 -23.355  0.00  0.00    +0.000 C 
ATOM     11  C   UNL     1     -59.424 -54.923 -25.097  0.00  0.00    +0.000 C 
ATOM     12  C   UNL     1     -60.945 -54.392 -23.142  0.00  0.00    +0.000 C 
ATOM     13  C   UNL     1     -61.196 -51.945 -22.567  0.00  0.00    +0.000 C 
ATOM     14  C   UNL     1     -58.247 -55.677 -24.520  0.00  0.00    +0.000 C 
ATOM     15  C   UNL     1     -56.906 -55.025 -24.685  0.00  0.00    +0.000 C 
ATOM     16  C   UNL     1     -61.262 -53.398 -22.130  0.00  0.00    +0.000 C 
ATOM     17  C   UNL     1     -61.404 -51.821 -24.828  0.00  0.00    +0.000 C 
ATOM     18  C   UNL     1     -59.981 -55.694 -26.149  0.00  0.00    +0.000 C 
ATOM     19  C   UNL     1     -61.626 -55.760 -23.087  0.00  0.00    +0.000 C 
ATOM     20  C   UNL     1     -58.326 -56.975 -25.391  0.00  0.00    +0.000 C 
ATOM     21  C   UNL     1     -59.460 -56.856 -26.364  0.00  0.00    +0.000 C 
ATOM     22  C   UNL     1     -59.605 -57.607 -27.646  0.00  0.00    +0.000 C 
ENDROOT
BRANCH  13  23
ATOM     23  C   UNL     1     -61.408 -50.871 -21.475  0.00  0.00    +0.000 C 
ATOM     24  C   UNL     1     -62.764 -50.529 -20.860  0.00  0.00    +0.000 C 
ATOM     25  C   UNL     1     -60.486 -49.938 -21.158  0.00  0.00    +0.000 C 
ENDBRANCH  13  23
BRANCH  14  26
ATOM     26  O   UNL     1     -58.435 -55.942 -23.146  0.00  0.00    +0.000 OA
ATOM     27  H   UNL     1     -58.561 -55.082 -22.699  0.00  0.00    +0.000 HD
ENDBRANCH  14  26
BRANCH  15  28
ATOM     28  O   UNL     1     -55.787 -55.861 -24.628  0.00  0.00    +0.000 OA
ATOM     29  H   UNL     1     -55.942 -56.782 -24.929  0.00  0.00    +0.000 HD
ENDBRANCH  15  28
BRANCH  17  30
ATOM     30  C   UNL     1     -62.191 -51.206 -25.892  0.00  0.00    +0.000 C 
ATOM     31  C   UNL     1     -62.840 -50.701 -26.766  0.00  0.00    +0.000 C 
BRANCH  31  32
ATOM     32  C   UNL     1     -63.669 -50.056 -27.880  0.00  0.00    +0.000 C 
ATOM     33  C   UNL     1     -64.319 -49.550 -28.754  0.00  0.00    +0.000 C 
BRANCH  33  34
ATOM     34  C   UNL     1     -65.149 -48.902 -29.866  0.00  0.00    +0.000 C 
ATOM     35  C   UNL     1     -65.978 -48.255 -30.978  0.00  0.00    +0.000 C 
BRANCH  35  36
ATOM     36  C   UNL     1     -66.808 -47.607 -32.092  0.00  0.00    +0.000 C 
ATOM     37  C   UNL     1     -67.636 -46.961 -33.206  0.00  0.00    +0.000 C 
ATOM     38  C   UNL     1     -68.465 -46.315 -34.321  0.00  0.00    +0.000 C 
ENDBRANCH  35  36
ENDBRANCH  33  34
ENDBRANCH  31  32
ENDBRANCH  17  30
BRANCH  16  39
ATOM     39  O   UNL     1     -61.645 -53.850 -20.856  0.00  0.00    +0.000 OA
BRANCH  39  41
ATOM     40  O   UNL     1     -60.435 -55.574 -19.936  0.00  0.00    +0.000 OA
ATOM     41  C   UNL     1     -60.626 -54.383 -20.119  0.00  0.00    +0.000 C 
BRANCH  41  42
ATOM     42  C   UNL     1     -59.804 -53.311 -19.531  0.00  0.00    +0.000 A 
ATOM     43  C   UNL     1     -58.537 -53.007 -20.029  0.00  0.00    +0.000 A 
ATOM     44  C   UNL     1     -60.324 -52.596 -18.453  0.00  0.00    +0.000 A 
ATOM     45  C   UNL     1     -57.790 -51.985 -19.447  0.00  0.00    +0.000 A 
ATOM     46  C   UNL     1     -59.575 -51.575 -17.874  0.00  0.00    +0.000 A 
ATOM     47  C   UNL     1     -58.310 -51.270 -18.370  0.00  0.00    +0.000 A 
ENDBRANCH  41  42
ENDBRANCH  39  41
ENDBRANCH  16  39
BRANCH   9  48
ATOM     48  C   UNL     1     -55.327 -53.064 -24.754  0.00  0.00    +0.000 C 
BRANCH  48  49
ATOM     49  O   UNL     1     -54.072 -52.625 -24.795  0.00  0.00    +0.000 OA
ATOM     50  H   UNL     1     -53.666 -52.672 -23.912  0.00  0.00    +0.000 HD
ENDBRANCH  48  49
ENDBRANCH   9  48
TORSDOF 12
ENDMDL
MODEL 5
REMARK VINA RESULT:      -5.6     30.787     36.169
REMARK  Name = 5358691_Yuanhuacine.pdbqt.pdb
REMARK  12 active torsions:
REMARK  status: ('A' for Active; 'I' for Inactive)
REMARK    1  A    between atoms: C_9  and  C_48
REMARK    2  A    between atoms: C_13  and  C_23
REMARK    3  A    between atoms: C_14  and  O_26
REMARK    4  A    between atoms: C_15  and  O_28
REMARK    5  A    between atoms: C_16  and  O_39
REMARK    6  A    between atoms: C_17  and  C_30
REMARK    7  A    between atoms: C_31  and  C_32
REMARK    8  A    between atoms: C_33  and  C_34
REMARK    9  A    between atoms: C_35  and  C_36
REMARK   10  A    between atoms: O_39  and  C_41
REMARK   11  A    between atoms: C_41  and  C_42
REMARK   12  A    between atoms: C_48  and  O_49
REMARK                            x       y       z     vdW  Elec       q    Type
REMARK                         _______ _______ _______ _____ _____    ______ ____
ROOT
ATOM      1  O   UNL     1     -62.130 -54.960 -20.853  0.00  0.00    +0.000 OA
ATOM      2  O   UNL     1     -62.222 -54.403 -17.397  0.00  0.00    +0.000 OA
ATOM      3  O   UNL     1     -64.376 -54.569 -18.380  0.00  0.00    +0.000 OA
ATOM      4  O   UNL     1     -64.122 -53.325 -16.470  0.00  0.00    +0.000 OA
ATOM      5  O   UNL     1     -57.416 -52.795 -20.398  0.00  0.00    +0.000 OA
ATOM      6  C   UNL     1     -62.860 -53.240 -19.434  0.00  0.00    +0.000 C 
ATOM      7  C   UNL     1     -61.825 -53.329 -18.304  0.00  0.00    +0.000 C 
ATOM      8  C   UNL     1     -62.692 -53.710 -20.780  0.00  0.00    +0.000 C 
ATOM      9  C   UNL     1     -61.555 -53.935 -21.674  0.00  0.00    +0.000 C 
ATOM     10  C   UNL     1     -64.176 -53.250 -18.783  0.00  0.00    +0.000 C 
ATOM     11  C   UNL     1     -60.457 -53.666 -18.815  0.00  0.00    +0.000 C 
ATOM     12  C   UNL     1     -61.835 -51.985 -17.514  0.00  0.00    +0.000 C 
ATOM     13  C   UNL     1     -64.335 -52.352 -17.532  0.00  0.00    +0.000 C 
ATOM     14  C   UNL     1     -59.837 -52.901 -19.962  0.00  0.00    +0.000 C 
ATOM     15  C   UNL     1     -60.226 -53.355 -21.339  0.00  0.00    +0.000 C 
ATOM     16  C   UNL     1     -63.160 -51.403 -17.371  0.00  0.00    +0.000 C 
ATOM     17  C   UNL     1     -63.647 -54.485 -17.150  0.00  0.00    +0.000 C 
ATOM     18  C   UNL     1     -59.423 -54.330 -18.106  0.00  0.00    +0.000 C 
ATOM     19  C   UNL     1     -60.670 -51.396 -16.719  0.00  0.00    +0.000 C 
ATOM     20  C   UNL     1     -58.329 -53.222 -19.696  0.00  0.00    +0.000 C 
ATOM     21  C   UNL     1     -58.213 -54.119 -18.500  0.00  0.00    +0.000 C 
ATOM     22  C   UNL     1     -57.066 -55.023 -18.184  0.00  0.00    +0.000 C 
ENDROOT
BRANCH  13  23
ATOM     23  C   UNL     1     -65.751 -51.730 -17.508  0.00  0.00    +0.000 C 
ATOM     24  C   UNL     1     -66.426 -51.184 -16.251  0.00  0.00    +0.000 C 
ATOM     25  C   UNL     1     -66.639 -51.861 -18.514  0.00  0.00    +0.000 C 
ENDBRANCH  13  23
BRANCH  14  26
ATOM     26  O   UNL     1     -60.116 -51.520 -19.865  0.00  0.00    +0.000 OA
ATOM     27  H   UNL     1     -59.449 -51.131 -19.265  0.00  0.00    +0.000 HD
ENDBRANCH  14  26
BRANCH  15  28
ATOM     28  O   UNL     1     -59.348 -53.039 -22.378  0.00  0.00    +0.000 OA
ATOM     29  H   UNL     1     -59.465 -53.569 -23.196  0.00  0.00    +0.000 HD
ENDBRANCH  15  28
BRANCH  17  30
ATOM     30  C   UNL     1     -63.915 -55.667 -16.337  0.00  0.00    +0.000 C 
ATOM     31  C   UNL     1     -64.138 -56.639 -15.668  0.00  0.00    +0.000 C 
BRANCH  31  32
ATOM     32  C   UNL     1     -64.424 -57.878 -14.816  0.00  0.00    +0.000 C 
ATOM     33  C   UNL     1     -64.647 -58.850 -14.147  0.00  0.00    +0.000 C 
BRANCH  33  34
ATOM     34  C   UNL     1     -64.930 -60.088 -13.291  0.00  0.00    +0.000 C 
ATOM     35  C   UNL     1     -65.212 -61.327 -12.438  0.00  0.00    +0.000 C 
BRANCH  35  36
ATOM     36  C   UNL     1     -65.494 -62.567 -11.582  0.00  0.00    +0.000 C 
ATOM     37  C   UNL     1     -65.776 -63.806 -10.727  0.00  0.00    +0.000 C 
ATOM     38  C   UNL     1     -66.059 -65.045  -9.872  0.00  0.00    +0.000 C 
ENDBRANCH  35  36
ENDBRANCH  33  34
ENDBRANCH  31  32
ENDBRANCH  17  30
BRANCH  16  39
ATOM     39  O   UNL     1     -63.252 -50.038 -17.055  0.00  0.00    +0.000 OA
BRANCH  39  41
ATOM     40  O   UNL     1     -62.003 -48.824 -18.555  0.00  0.00    +0.000 OA
ATOM     41  C   UNL     1     -63.078 -49.201 -18.121  0.00  0.00    +0.000 C 
BRANCH  41  42
ATOM     42  C   UNL     1     -64.384 -48.775 -18.656  0.00  0.00    +0.000 A 
ATOM     43  C   UNL     1     -64.761 -49.055 -19.969  0.00  0.00    +0.000 A 
ATOM     44  C   UNL     1     -65.247 -48.078 -17.812  0.00  0.00    +0.000 A 
ATOM     45  C   UNL     1     -66.005 -48.636 -20.437  0.00  0.00    +0.000 A 
ATOM     46  C   UNL     1     -66.490 -47.662 -18.282  0.00  0.00    +0.000 A 
ATOM     47  C   UNL     1     -66.867 -47.941 -19.594  0.00  0.00    +0.000 A 
ENDBRANCH  41  42
ENDBRANCH  39  41
ENDBRANCH  16  39
BRANCH   9  48
ATOM     48  C   UNL     1     -61.833 -54.217 -23.076  0.00  0.00    +0.000 C 
BRANCH  48  49
ATOM     49  O   UNL     1     -62.092 -54.476 -24.355  0.00  0.00    +0.000 OA
ATOM     50  H   UNL     1     -61.274 -54.703 -24.829  0.00  0.00    +0.000 HD
ENDBRANCH  48  49
ENDBRANCH   9  48
TORSDOF 12
ENDMDL
MODEL 6
REMARK VINA RESULT:      -5.5     24.069     30.141
REMARK  Name = 5358691_Yuanhuacine.pdbqt.pdb
REMARK  12 active torsions:
REMARK  status: ('A' for Active; 'I' for Inactive)
REMARK    1  A    between atoms: C_9  and  C_48
REMARK    2  A    between atoms: C_13  and  C_23
REMARK    3  A    between atoms: C_14  and  O_26
REMARK    4  A    between atoms: C_15  and  O_28
REMARK    5  A    between atoms: C_16  and  O_39
REMARK    6  A    between atoms: C_17  and  C_30
REMARK    7  A    between atoms: C_31  and  C_32
REMARK    8  A    between atoms: C_33  and  C_34
REMARK    9  A    between atoms: C_35  and  C_36
REMARK   10  A    between atoms: O_39  and  C_41
REMARK   11  A    between atoms: C_41  and  C_42
REMARK   12  A    between atoms: C_48  and  O_49
REMARK                            x       y       z     vdW  Elec       q    Type
REMARK                         _______ _______ _______ _____ _____    ______ ____
ROOT
ATOM      1  O   UNL     1     -61.982 -58.700 -79.462  0.00  0.00    +0.000 OA
ATOM      2  O   UNL     1     -65.217 -59.406 -78.323  0.00  0.00    +0.000 OA
ATOM      3  O   UNL     1     -63.759 -61.276 -78.229  0.00  0.00    +0.000 OA
ATOM      4  O   UNL     1     -66.011 -61.637 -78.467  0.00  0.00    +0.000 OA
ATOM      5  O   UNL     1     -64.440 -54.881 -82.012  0.00  0.00    +0.000 OA
ATOM      6  C   UNL     1     -63.761 -60.063 -80.155  0.00  0.00    +0.000 C 
ATOM      7  C   UNL     1     -64.968 -59.206 -79.748  0.00  0.00    +0.000 C 
ATOM      8  C   UNL     1     -62.428 -59.592 -80.404  0.00  0.00    +0.000 C 
ATOM      9  C   UNL     1     -61.831 -58.328 -80.839  0.00  0.00    +0.000 C 
ATOM     10  C   UNL     1     -64.004 -61.399 -79.596  0.00  0.00    +0.000 C 
ATOM     11  C   UNL     1     -64.716 -57.743 -79.951  0.00  0.00    +0.000 C 
ATOM     12  C   UNL     1     -66.216 -59.696 -80.542  0.00  0.00    +0.000 C 
ATOM     13  C   UNL     1     -65.434 -61.969 -79.762  0.00  0.00    +0.000 C 
ATOM     14  C   UNL     1     -64.182 -57.213 -81.262  0.00  0.00    +0.000 C 
ATOM     15  C   UNL     1     -62.693 -57.271 -81.435  0.00  0.00    +0.000 C 
ATOM     16  C   UNL     1     -66.258 -61.138 -80.730  0.00  0.00    +0.000 C 
ATOM     17  C   UNL     1     -65.049 -60.771 -77.868  0.00  0.00    +0.000 C 
ATOM     18  C   UNL     1     -65.314 -56.669 -79.241  0.00  0.00    +0.000 C 
ATOM     19  C   UNL     1     -67.444 -58.859 -80.902  0.00  0.00    +0.000 C 
ATOM     20  C   UNL     1     -64.652 -55.725 -81.145  0.00  0.00    +0.000 C 
ATOM     21  C   UNL     1     -65.354 -55.524 -79.835  0.00  0.00    +0.000 C 
ATOM     22  C   UNL     1     -65.536 -54.224 -79.122  0.00  0.00    +0.000 C 
ENDROOT
BRANCH  13  23
ATOM     23  C   UNL     1     -65.367 -63.492 -80.023  0.00  0.00    +0.000 C 
ATOM     24  C   UNL     1     -66.513 -64.461 -79.741  0.00  0.00    +0.000 C 
ATOM     25  C   UNL     1     -64.216 -64.158 -80.251  0.00  0.00    +0.000 C 
ENDBRANCH  13  23
BRANCH  14  26
ATOM     26  O   UNL     1     -64.774 -57.876 -82.360  0.00  0.00    +0.000 OA
ATOM     27  H   UNL     1     -65.141 -58.718 -82.026  0.00  0.00    +0.000 HD
ENDBRANCH  14  26
BRANCH  15  28
ATOM     28  O   UNL     1     -62.130 -56.385 -82.357  0.00  0.00    +0.000 OA
ATOM     29  H   UNL     1     -62.366 -56.555 -83.294  0.00  0.00    +0.000 HD
ENDBRANCH  15  28
BRANCH  17  30
ATOM     30  C   UNL     1     -65.204 -60.806 -76.417  0.00  0.00    +0.000 C 
ATOM     31  C   UNL     1     -65.331 -60.832 -75.224  0.00  0.00    +0.000 C 
BRANCH  31  32
ATOM     32  C   UNL     1     -65.495 -60.866 -73.702  0.00  0.00    +0.000 C 
ATOM     33  C   UNL     1     -65.624 -60.891 -72.509  0.00  0.00    +0.000 C 
BRANCH  33  34
ATOM     34  C   UNL     1     -65.787 -60.920 -70.986  0.00  0.00    +0.000 C 
ATOM     35  C   UNL     1     -65.952 -60.951 -69.465  0.00  0.00    +0.000 C 
BRANCH  35  36
ATOM     36  C   UNL     1     -66.116 -60.982 -67.941  0.00  0.00    +0.000 C 
ATOM     37  C   UNL     1     -66.281 -61.015 -66.419  0.00  0.00    +0.000 C 
ATOM     38  C   UNL     1     -66.445 -61.049 -64.896  0.00  0.00    +0.000 C 
ENDBRANCH  35  36
ENDBRANCH  33  34
ENDBRANCH  31  32
ENDBRANCH  17  30
BRANCH  16  39
ATOM     39  O   UNL     1     -67.081 -61.648 -81.748  0.00  0.00    +0.000 OA
BRANCH  39  41
ATOM     40  O   UNL     1     -67.084 -60.594 -83.790  0.00  0.00    +0.000 OA
ATOM     41  C   UNL     1     -66.622 -61.412 -83.012  0.00  0.00    +0.000 C 
BRANCH  41  42
ATOM     42  C   UNL     1     -65.507 -62.321 -83.331  0.00  0.00    +0.000 A 
ATOM     43  C   UNL     1     -64.184 -61.880 -83.339  0.00  0.00    +0.000 A 
ATOM     44  C   UNL     1     -65.804 -63.651 -83.627  0.00  0.00    +0.000 A 
ATOM     45  C   UNL     1     -63.157 -62.770 -83.644  0.00  0.00    +0.000 A 
ATOM     46  C   UNL     1     -64.776 -64.539 -83.930  0.00  0.00    +0.000 A 
ATOM     47  C   UNL     1     -63.454 -64.099 -83.939  0.00  0.00    +0.000 A 
ENDBRANCH  41  42
ENDBRANCH  39  41
ENDBRANCH  16  39
BRANCH   9  48
ATOM     48  C   UNL     1     -60.419 -58.326 -81.194  0.00  0.00    +0.000 C 
BRANCH  48  49
ATOM     49  O   UNL     1     -59.130 -58.319 -81.523  0.00  0.00    +0.000 OA
ATOM     50  H   UNL     1     -58.771 -57.416 -81.476  0.00  0.00    +0.000 HD
ENDBRANCH  48  49
ENDBRANCH   9  48
TORSDOF 12
ENDMDL
MODEL 7
REMARK VINA RESULT:      -5.5     15.819     22.691
REMARK  Name = 5358691_Yuanhuacine.pdbqt.pdb
REMARK  12 active torsions:
REMARK  status: ('A' for Active; 'I' for Inactive)
REMARK    1  A    between atoms: C_9  and  C_48
REMARK    2  A    between atoms: C_13  and  C_23
REMARK    3  A    between atoms: C_14  and  O_26
REMARK    4  A    between atoms: C_15  and  O_28
REMARK    5  A    between atoms: C_16  and  O_39
REMARK    6  A    between atoms: C_17  and  C_30
REMARK    7  A    between atoms: C_31  and  C_32
REMARK    8  A    between atoms: C_33  and  C_34
REMARK    9  A    between atoms: C_35  and  C_36
REMARK   10  A    between atoms: O_39  and  C_41
REMARK   11  A    between atoms: C_41  and  C_42
REMARK   12  A    between atoms: C_48  and  O_49
REMARK                            x       y       z     vdW  Elec       q    Type
REMARK                         _______ _______ _______ _____ _____    ______ ____
ROOT
ATOM      1  O   UNL     1     -66.660 -45.203 -30.119  0.00  0.00    +0.000 OA
ATOM      2  O   UNL     1     -66.636 -47.870 -32.388  0.00  0.00    +0.000 OA
ATOM      3  O   UNL     1     -67.800 -45.964 -33.191  0.00  0.00    +0.000 OA
ATOM      4  O   UNL     1     -68.403 -48.037 -33.963  0.00  0.00    +0.000 OA
ATOM      5  O   UNL     1     -65.873 -49.016 -26.661  0.00  0.00    +0.000 OA
ATOM      6  C   UNL     1     -68.260 -46.635 -31.066  0.00  0.00    +0.000 C 
ATOM      7  C   UNL     1     -67.458 -47.939 -31.182  0.00  0.00    +0.000 C 
ATOM      8  C   UNL     1     -67.987 -45.546 -30.170  0.00  0.00    +0.000 C 
ATOM      9  C   UNL     1     -67.332 -45.403 -28.869  0.00  0.00    +0.000 C 
ATOM     10  C   UNL     1     -68.852 -46.402 -32.388  0.00  0.00    +0.000 C 
ATOM     11  C   UNL     1     -66.527 -48.136 -30.024  0.00  0.00    +0.000 C 
ATOM     12  C   UNL     1     -68.458 -49.125 -31.332  0.00  0.00    +0.000 C 
ATOM     13  C   UNL     1     -69.490 -47.628 -33.086  0.00  0.00    +0.000 C 
ATOM     14  C   UNL     1     -67.010 -48.005 -28.597  0.00  0.00    +0.000 C 
ATOM     15  C   UNL     1     -67.053 -46.610 -28.045  0.00  0.00    +0.000 C 
ATOM     16  C   UNL     1     -69.627 -48.804 -32.134  0.00  0.00    +0.000 C 
ATOM     17  C   UNL     1     -67.290 -47.259 -33.527  0.00  0.00    +0.000 C 
ATOM     18  C   UNL     1     -65.313 -48.870 -30.023  0.00  0.00    +0.000 C 
ATOM     19  C   UNL     1     -68.203 -50.578 -30.929  0.00  0.00    +0.000 C 
ATOM     20  C   UNL     1     -65.897 -48.835 -27.876  0.00  0.00    +0.000 C 
ATOM     21  C   UNL     1     -64.903 -49.324 -28.887  0.00  0.00    +0.000 C 
ATOM     22  C   UNL     1     -63.491 -49.726 -28.613  0.00  0.00    +0.000 C 
ENDROOT
BRANCH  13  23
ATOM     23  C   UNL     1     -70.759 -47.194 -33.856  0.00  0.00    +0.000 C 
ATOM     24  C   UNL     1     -71.001 -47.476 -35.338  0.00  0.00    +0.000 C 
ATOM     25  C   UNL     1     -71.642 -46.289 -33.387  0.00  0.00    +0.000 C 
ENDBRANCH  13  23
BRANCH  14  26
ATOM     26  O   UNL     1     -68.291 -48.576 -28.438  0.00  0.00    +0.000 OA
ATOM     27  H   UNL     1     -68.163 -49.518 -28.212  0.00  0.00    +0.000 HD
ENDBRANCH  14  26
BRANCH  15  28
ATOM     28  O   UNL     1     -67.008 -46.481 -26.655  0.00  0.00    +0.000 OA
ATOM     29  H   UNL     1     -67.609 -47.081 -26.163  0.00  0.00    +0.000 HD
ENDBRANCH  15  28
BRANCH  17  30
ATOM     30  C   UNL     1     -66.325 -47.142 -34.615  0.00  0.00    +0.000 C 
ATOM     31  C   UNL     1     -65.533 -47.045 -35.512  0.00  0.00    +0.000 C 
BRANCH  31  32
ATOM     32  C   UNL     1     -64.523 -46.922 -36.656  0.00  0.00    +0.000 C 
ATOM     33  C   UNL     1     -63.732 -46.824 -37.554  0.00  0.00    +0.000 C 
BRANCH  33  34
ATOM     34  C   UNL     1     -62.725 -46.700 -38.701  0.00  0.00    +0.000 C 
ATOM     35  C   UNL     1     -61.719 -46.577 -39.849  0.00  0.00    +0.000 C 
BRANCH  35  36
ATOM     36  C   UNL     1     -60.713 -46.452 -40.998  0.00  0.00    +0.000 C 
ATOM     37  C   UNL     1     -59.707 -46.326 -42.145  0.00  0.00    +0.000 C 
ATOM     38  C   UNL     1     -58.700 -46.199 -43.293  0.00  0.00    +0.000 C 
ENDBRANCH  35  36
ENDBRANCH  33  34
ENDBRANCH  31  32
ENDBRANCH  17  30
BRANCH  16  39
ATOM     39  O   UNL     1     -70.762 -49.621 -32.006  0.00  0.00    +0.000 OA
BRANCH  39  41
ATOM     40  O   UNL     1     -71.812 -48.298 -30.448  0.00  0.00    +0.000 OA
ATOM     41  C   UNL     1     -71.492 -49.394 -30.874  0.00  0.00    +0.000 C 
BRANCH  41  42
ATOM     42  C   UNL     1     -71.808 -50.669 -30.204  0.00  0.00    +0.000 A 
ATOM     43  C   UNL     1     -71.730 -51.887 -30.879  0.00  0.00    +0.000 A 
ATOM     44  C   UNL     1     -72.188 -50.634 -28.864  0.00  0.00    +0.000 A 
ATOM     45  C   UNL     1     -72.035 -53.071 -30.211  0.00  0.00    +0.000 A 
ATOM     46  C   UNL     1     -72.491 -51.819 -28.198  0.00  0.00    +0.000 A 
ATOM     47  C   UNL     1     -72.414 -53.036 -28.872  0.00  0.00    +0.000 A 
ENDBRANCH  41  42
ENDBRANCH  39  41
ENDBRANCH  16  39
BRANCH   9  48
ATOM     48  C   UNL     1     -67.463 -44.129 -28.174  0.00  0.00    +0.000 C 
BRANCH  48  49
ATOM     49  O   UNL     1     -67.587 -42.964 -27.545  0.00  0.00    +0.000 OA
ATOM     50  H   UNL     1     -68.507 -42.830 -27.255  0.00  0.00    +0.000 HD
ENDBRANCH  48  49
ENDBRANCH   9  48
TORSDOF 12
ENDMDL
MODEL 8
REMARK VINA RESULT:      -5.4      3.189      7.259
REMARK  Name = 5358691_Yuanhuacine.pdbqt.pdb
REMARK  12 active torsions:
REMARK  status: ('A' for Active; 'I' for Inactive)
REMARK    1  A    between atoms: C_9  and  C_48
REMARK    2  A    between atoms: C_13  and  C_23
REMARK    3  A    between atoms: C_14  and  O_26
REMARK    4  A    between atoms: C_15  and  O_28
REMARK    5  A    between atoms: C_16  and  O_39
REMARK    6  A    between atoms: C_17  and  C_30
REMARK    7  A    between atoms: C_31  and  C_32
REMARK    8  A    between atoms: C_33  and  C_34
REMARK    9  A    between atoms: C_35  and  C_36
REMARK   10  A    between atoms: O_39  and  C_41
REMARK   11  A    between atoms: C_41  and  C_42
REMARK   12  A    between atoms: C_48  and  O_49
REMARK                            x       y       z     vdW  Elec       q    Type
REMARK                         _______ _______ _______ _____ _____    ______ ____
ROOT
ATOM      1  O   UNL     1     -62.139 -45.930 -57.619  0.00  0.00    +0.000 OA
ATOM      2  O   UNL     1     -64.300 -44.836 -55.091  0.00  0.00    +0.000 OA
ATOM      3  O   UNL     1     -64.018 -47.192 -55.130  0.00  0.00    +0.000 OA
ATOM      4  O   UNL     1     -65.972 -46.324 -54.302  0.00  0.00    +0.000 OA
ATOM      5  O   UNL     1     -63.493 -41.403 -59.808  0.00  0.00    +0.000 OA
ATOM      6  C   UNL     1     -64.419 -46.167 -57.122  0.00  0.00    +0.000 C 
ATOM      7  C   UNL     1     -64.727 -44.802 -56.487  0.00  0.00    +0.000 C 
ATOM      8  C   UNL     1     -63.338 -46.462 -58.019  0.00  0.00    +0.000 C 
ATOM      9  C   UNL     1     -62.536 -45.699 -58.977  0.00  0.00    +0.000 C 
ATOM     10  C   UNL     1     -64.929 -47.175 -56.185  0.00  0.00    +0.000 C 
ATOM     11  C   UNL     1     -63.978 -43.688 -57.151  0.00  0.00    +0.000 C 
ATOM     12  C   UNL     1     -66.268 -44.572 -56.528  0.00  0.00    +0.000 C 
ATOM     13  C   UNL     1     -66.331 -46.915 -55.583  0.00  0.00    +0.000 C 
ATOM     14  C   UNL     1     -63.987 -43.521 -58.654  0.00  0.00    +0.000 C 
ATOM     15  C   UNL     1     -62.992 -44.351 -59.411  0.00  0.00    +0.000 C 
ATOM     16  C   UNL     1     -67.044 -45.780 -56.298  0.00  0.00    +0.000 C 
ATOM     17  C   UNL     1     -64.570 -46.085 -54.409  0.00  0.00    +0.000 C 
ATOM     18  C   UNL     1     -63.586 -42.457 -56.564  0.00  0.00    +0.000 C 
ATOM     19  C   UNL     1     -66.979 -43.219 -56.548  0.00  0.00    +0.000 C 
ATOM     20  C   UNL     1     -63.605 -42.007 -58.744  0.00  0.00    +0.000 C 
ATOM     21  C   UNL     1     -63.390 -41.463 -57.363  0.00  0.00    +0.000 C 
ATOM     22  C   UNL     1     -62.586 -40.256 -57.006  0.00  0.00    +0.000 C 
ENDROOT
BRANCH  13  23
ATOM     23  C   UNL     1     -67.099 -48.250 -55.440  0.00  0.00    +0.000 C 
ATOM     24  C   UNL     1     -67.263 -49.269 -56.566  0.00  0.00    +0.000 C 
ATOM     25  C   UNL     1     -67.934 -48.523 -54.417  0.00  0.00    +0.000 C 
ENDBRANCH  13  23
BRANCH  14  26
ATOM     26  O   UNL     1     -65.268 -43.783 -59.189  0.00  0.00    +0.000 OA
ATOM     27  H   UNL     1     -65.154 -44.436 -59.907  0.00  0.00    +0.000 HD
ENDBRANCH  14  26
BRANCH  15  28
ATOM     28  O   UNL     1     -62.626 -43.894 -60.680  0.00  0.00    +0.000 OA
ATOM     29  H   UNL     1     -62.281 -42.976 -60.707  0.00  0.00    +0.000 HD
ENDBRANCH  15  28
BRANCH  17  30
ATOM     30  C   UNL     1     -63.986 -46.027 -53.073  0.00  0.00    +0.000 C 
ATOM     31  C   UNL     1     -63.503 -45.978 -51.975  0.00  0.00    +0.000 C 
BRANCH  31  32
ATOM     32  C   UNL     1     -62.888 -45.914 -50.574  0.00  0.00    +0.000 C 
ATOM     33  C   UNL     1     -62.404 -45.865 -49.477  0.00  0.00    +0.000 C 
BRANCH  33  34
ATOM     34  C   UNL     1     -61.786 -45.803 -48.076  0.00  0.00    +0.000 C 
ATOM     35  C   UNL     1     -61.168 -45.741 -46.678  0.00  0.00    +0.000 C 
BRANCH  35  36
ATOM     36  C   UNL     1     -60.549 -45.677 -45.277  0.00  0.00    +0.000 C 
ATOM     37  C   UNL     1     -59.932 -45.614 -43.877  0.00  0.00    +0.000 C 
ATOM     38  C   UNL     1     -59.315 -45.551 -42.476  0.00  0.00    +0.000 C 
ENDBRANCH  35  36
ENDBRANCH  33  34
ENDBRANCH  31  32
ENDBRANCH  17  30
BRANCH  16  39
ATOM     39  O   UNL     1     -68.388 -45.790 -56.707  0.00  0.00    +0.000 OA
BRANCH  39  41
ATOM     40  O   UNL     1     -67.888 -45.711 -58.948  0.00  0.00    +0.000 OA
ATOM     41  C   UNL     1     -68.573 -46.109 -58.022  0.00  0.00    +0.000 C 
BRANCH  41  42
ATOM     42  C   UNL     1     -69.756 -46.976 -58.177  0.00  0.00    +0.000 A 
ATOM     43  C   UNL     1     -70.218 -47.360 -59.436  0.00  0.00    +0.000 A 
ATOM     44  C   UNL     1     -70.411 -47.411 -57.027  0.00  0.00    +0.000 A 
ATOM     45  C   UNL     1     -71.338 -48.181 -59.542  0.00  0.00    +0.000 A 
ATOM     46  C   UNL     1     -71.530 -48.232 -57.135  0.00  0.00    +0.000 A 
ATOM     47  C   UNL     1     -71.993 -48.616 -58.392  0.00  0.00    +0.000 A 
ENDBRANCH  41  42
ENDBRANCH  39  41
ENDBRANCH  16  39
BRANCH   9  48
ATOM     48  C   UNL     1     -61.660 -46.437 -59.876  0.00  0.00    +0.000 C 
BRANCH  48  49
ATOM     49  O   UNL     1     -60.865 -47.110 -60.703  0.00  0.00    +0.000 OA
ATOM     50  H   UNL     1     -60.300 -47.726 -60.204  0.00  0.00    +0.000 HD
ENDBRANCH  48  49
ENDBRANCH   9  48
TORSDOF 12
ENDMDL
MODEL 9
REMARK VINA RESULT:      -5.4     17.334     23.720
REMARK  Name = 5358691_Yuanhuacine.pdbqt.pdb
REMARK  12 active torsions:
REMARK  status: ('A' for Active; 'I' for Inactive)
REMARK    1  A    between atoms: C_9  and  C_48
REMARK    2  A    between atoms: C_13  and  C_23
REMARK    3  A    between atoms: C_14  and  O_26
REMARK    4  A    between atoms: C_15  and  O_28
REMARK    5  A    between atoms: C_16  and  O_39
REMARK    6  A    between atoms: C_17  and  C_30
REMARK    7  A    between atoms: C_31  and  C_32
REMARK    8  A    between atoms: C_33  and  C_34
REMARK    9  A    between atoms: C_35  and  C_36
REMARK   10  A    between atoms: O_39  and  C_41
REMARK   11  A    between atoms: C_41  and  C_42
REMARK   12  A    between atoms: C_48  and  O_49
REMARK                            x       y       z     vdW  Elec       q    Type
REMARK                         _______ _______ _______ _____ _____    ______ ____
ROOT
ATOM      1  O   UNL     1     -65.741 -49.562 -28.646  0.00  0.00    +0.000 OA
ATOM      2  O   UNL     1     -68.881 -48.616 -29.874  0.00  0.00    +0.000 OA
ATOM      3  O   UNL     1     -67.859 -50.345 -31.139  0.00  0.00    +0.000 OA
ATOM      4  O   UNL     1     -69.344 -48.940 -32.179  0.00  0.00    +0.000 OA
ATOM      5  O   UNL     1     -65.841 -44.769 -26.610  0.00  0.00    +0.000 OA
ATOM      6  C   UNL     1     -66.561 -48.555 -30.600  0.00  0.00    +0.000 C 
ATOM      7  C   UNL     1     -67.730 -47.731 -30.040  0.00  0.00    +0.000 C 
ATOM      8  C   UNL     1     -65.419 -49.019 -29.864  0.00  0.00    +0.000 C 
ATOM      9  C   UNL     1     -64.697 -48.579 -28.668  0.00  0.00    +0.000 C 
ATOM     10  C   UNL     1     -67.108 -49.326 -31.723  0.00  0.00    +0.000 C 
ATOM     11  C   UNL     1     -67.421 -47.152 -28.693  0.00  0.00    +0.000 C 
ATOM     12  C   UNL     1     -68.101 -46.627 -31.076  0.00  0.00    +0.000 C 
ATOM     13  C   UNL     1     -68.037 -48.564 -32.698  0.00  0.00    +0.000 C 
ATOM     14  C   UNL     1     -66.142 -46.385 -28.444  0.00  0.00    +0.000 C 
ATOM     15  C   UNL     1     -64.932 -47.214 -28.124  0.00  0.00    +0.000 C 
ATOM     16  C   UNL     1     -67.990 -47.065 -32.459  0.00  0.00    +0.000 C 
ATOM     17  C   UNL     1     -69.055 -49.583 -30.939  0.00  0.00    +0.000 C 
ATOM     18  C   UNL     1     -68.351 -46.820 -27.675  0.00  0.00    +0.000 C 
ATOM     19  C   UNL     1     -68.762 -45.284 -30.767  0.00  0.00    +0.000 C 
ATOM     20  C   UNL     1     -66.580 -45.565 -27.185  0.00  0.00    +0.000 C 
ATOM     21  C   UNL     1     -67.987 -45.928 -26.816  0.00  0.00    +0.000 C 
ATOM     22  C   UNL     1     -68.617 -45.763 -25.472  0.00  0.00    +0.000 C 
ENDROOT
BRANCH  13  23
ATOM     23  C   UNL     1     -67.797 -49.053 -34.145  0.00  0.00    +0.000 C 
ATOM     24  C   UNL     1     -68.886 -49.138 -35.214  0.00  0.00    +0.000 C 
ATOM     25  C   UNL     1     -66.688 -49.716 -34.533  0.00  0.00    +0.000 C 
ENDBRANCH  13  23
BRANCH  14  26
ATOM     26  O   UNL     1     -65.823 -45.554 -29.540  0.00  0.00    +0.000 OA
ATOM     27  H   UNL     1     -64.886 -45.291 -29.441  0.00  0.00    +0.000 HD
ENDBRANCH  14  26
BRANCH  15  28
ATOM     28  O   UNL     1     -63.901 -46.581 -27.427  0.00  0.00    +0.000 OA
ATOM     29  H   UNL     1     -63.759 -45.639 -27.661  0.00  0.00    +0.000 HD
ENDBRANCH  15  28
BRANCH  17  30
ATOM     30  C   UNL     1     -70.155 -50.475 -30.588  0.00  0.00    +0.000 C 
ATOM     31  C   UNL     1     -71.060 -51.208 -30.297  0.00  0.00    +0.000 C 
BRANCH  31  32
ATOM     32  C   UNL     1     -72.215 -52.142 -29.926  0.00  0.00    +0.000 C 
ATOM     33  C   UNL     1     -73.120 -52.875 -29.635  0.00  0.00    +0.000 C 
BRANCH  33  34
ATOM     34  C   UNL     1     -74.273 -53.813 -29.264  0.00  0.00    +0.000 C 
ATOM     35  C   UNL     1     -75.426 -54.748 -28.892  0.00  0.00    +0.000 C 
BRANCH  35  36
ATOM     36  C   UNL     1     -76.581 -55.684 -28.521  0.00  0.00    +0.000 C 
ATOM     37  C   UNL     1     -77.736 -56.619 -28.150  0.00  0.00    +0.000 C 
ATOM     38  C   UNL     1     -78.892 -57.555 -27.781  0.00  0.00    +0.000 C 
ENDBRANCH  35  36
ENDBRANCH  33  34
ENDBRANCH  31  32
ENDBRANCH  17  30
BRANCH  16  39
ATOM     39  O   UNL     1     -67.896 -46.081 -33.458  0.00  0.00    +0.000 OA
BRANCH  39  41
ATOM     40  O   UNL     1     -66.119 -44.722 -32.932  0.00  0.00    +0.000 OA
ATOM     41  C   UNL     1     -66.639 -45.575 -33.631  0.00  0.00    +0.000 C 
BRANCH  41  42
ATOM     42  C   UNL     1     -66.005 -46.175 -34.819  0.00  0.00    +0.000 A 
ATOM     43  C   UNL     1     -66.658 -46.222 -36.050  0.00  0.00    +0.000 A 
ATOM     44  C   UNL     1     -64.720 -46.700 -34.687  0.00  0.00    +0.000 A 
ATOM     45  C   UNL     1     -66.025 -46.796 -37.150  0.00  0.00    +0.000 A 
ATOM     46  C   UNL     1     -64.089 -47.273 -35.788  0.00  0.00    +0.000 A 
ATOM     47  C   UNL     1     -64.741 -47.320 -37.018  0.00  0.00    +0.000 A 
ENDBRANCH  41  42
ENDBRANCH  39  41
ENDBRANCH  16  39
BRANCH   9  48
ATOM     48  C   UNL     1     -63.421 -49.213 -28.369  0.00  0.00    +0.000 C 
BRANCH  48  49
ATOM     49  O   UNL     1     -62.252 -49.787 -28.096  0.00  0.00    +0.000 OA
ATOM     50  H   UNL     1     -62.357 -50.751 -28.015  0.00  0.00    +0.000 HD
ENDBRANCH  48  49
ENDBRANCH   9  48
TORSDOF 12
ENDMDL
