MODEL 1
REMARK VINA RESULT:      -4.3      0.000      0.000
REMARK  Name = 5386_Tegafur.pdbqt.pdb
REMARK  1 active torsions:
REMARK  status: ('A' for Active; 'I' for Inactive)
REMARK    1  A    between atoms: N_4  and  C_12
REMARK                            x       y       z     vdW  Elec       q    Type
REMARK                         _______ _______ _______ _____ _____    ______ ____
ROOT
ATOM      1  F   UNL     1     -66.118 -46.523 -57.961  0.00  0.00    +0.000 F 
ATOM      2  O   UNL     1     -61.806 -46.988 -61.231  0.00  0.00    +0.000 OA
ATOM      3  O   UNL     1     -66.211 -47.971 -60.390  0.00  0.00    +0.000 OA
ATOM      4  N   UNL     1     -62.841 -45.944 -59.378  0.00  0.00    +0.000 N 
ATOM      5  N   UNL     1     -64.026 -47.379 -60.812  0.00  0.00    +0.000 N 
ATOM      6  C   UNL     1     -62.783 -46.769 -60.524  0.00  0.00    +0.000 C 
ATOM      7  C   UNL     1     -64.026 -45.858 -58.739  0.00  0.00    +0.000 C 
ATOM      8  C   UNL     1     -65.197 -46.365 -58.925  0.00  0.00    +0.000 C 
ATOM      9  C   UNL     1     -65.227 -47.305 -60.092  0.00  0.00    +0.000 C 
ATOM     10  H   UNL     1     -64.024 -48.009 -61.601  0.00  0.00    +0.000 HD
ENDROOT
BRANCH   4  12
ATOM     11  O   UNL     1     -60.949 -45.738 -57.871  0.00  0.00    +0.000 OA
ATOM     12  C   UNL     1     -61.774 -45.246 -58.889  0.00  0.00    +0.000 C 
ATOM     13  C   UNL     1     -61.300 -43.960 -59.264  0.00  0.00    +0.000 C 
ATOM     14  C   UNL     1     -60.081 -43.315 -58.602  0.00  0.00    +0.000 C 
ATOM     15  C   UNL     1     -60.169 -44.649 -57.861  0.00  0.00    +0.000 C 
ENDBRANCH   4  12
TORSDOF 1
ENDMDL
MODEL 2
REMARK VINA RESULT:      -4.3     28.651     29.541
REMARK  Name = 5386_Tegafur.pdbqt.pdb
REMARK  1 active torsions:
REMARK  status: ('A' for Active; 'I' for Inactive)
REMARK    1  A    between atoms: N_4  and  C_12
REMARK                            x       y       z     vdW  Elec       q    Type
REMARK                         _______ _______ _______ _____ _____    ______ ____
ROOT
ATOM      1  F   UNL     1     -70.269 -56.687 -36.138  0.00  0.00    +0.000 F 
ATOM      2  O   UNL     1     -67.307 -58.341 -31.895  0.00  0.00    +0.000 OA
ATOM      3  O   UNL     1     -67.683 -57.793 -36.438  0.00  0.00    +0.000 OA
ATOM      4  N   UNL     1     -69.189 -57.168 -32.719  0.00  0.00    +0.000 N 
ATOM      5  N   UNL     1     -67.505 -57.966 -34.149  0.00  0.00    +0.000 N 
ATOM      6  C   UNL     1     -67.959 -57.858 -32.814  0.00  0.00    +0.000 C 
ATOM      7  C   UNL     1     -69.740 -56.729 -33.869  0.00  0.00    +0.000 C 
ATOM      8  C   UNL     1     -69.405 -56.777 -35.114  0.00  0.00    +0.000 C 
ATOM      9  C   UNL     1     -68.133 -57.542 -35.327  0.00  0.00    +0.000 C 
ATOM     10  H   UNL     1     -66.647 -58.486 -34.271  0.00  0.00    +0.000 HD
ENDROOT
BRANCH   4  12
ATOM     11  O   UNL     1     -70.640 -57.892 -30.913  0.00  0.00    +0.000 OA
ATOM     12  C   UNL     1     -69.839 -56.932 -31.543  0.00  0.00    +0.000 C 
ATOM     13  C   UNL     1     -69.859 -55.750 -30.754  0.00  0.00    +0.000 C 
ATOM     14  C   UNL     1     -70.655 -55.653 -29.451  0.00  0.00    +0.000 C 
ATOM     15  C   UNL     1     -70.959 -57.083 -29.895  0.00  0.00    +0.000 C 
ENDBRANCH   4  12
TORSDOF 1
ENDMDL
MODEL 3
REMARK VINA RESULT:      -4.1      2.511      4.672
REMARK  Name = 5386_Tegafur.pdbqt.pdb
REMARK  1 active torsions:
REMARK  status: ('A' for Active; 'I' for Inactive)
REMARK    1  A    between atoms: N_4  and  C_12
REMARK                            x       y       z     vdW  Elec       q    Type
REMARK                         _______ _______ _______ _____ _____    ______ ____
ROOT
ATOM      1  F   UNL     1     -61.931 -42.452 -60.304  0.00  0.00    +0.000 F 
ATOM      2  O   UNL     1     -61.957 -47.834 -61.037  0.00  0.00    +0.000 OA
ATOM      3  O   UNL     1     -59.793 -43.818 -61.556  0.00  0.00    +0.000 OA
ATOM      4  N   UNL     1     -62.904 -45.923 -60.012  0.00  0.00    +0.000 N 
ATOM      5  N   UNL     1     -60.876 -45.817 -61.194  0.00  0.00    +0.000 N 
ATOM      6  C   UNL     1     -61.939 -46.641 -60.756  0.00  0.00    +0.000 C 
ATOM      7  C   UNL     1     -62.688 -44.604 -59.833  0.00  0.00    +0.000 C 
ATOM      8  C   UNL     1     -61.762 -43.779 -60.187  0.00  0.00    +0.000 C 
ATOM      9  C   UNL     1     -60.713 -44.435 -61.032  0.00  0.00    +0.000 C 
ATOM     10  H   UNL     1     -60.181 -46.279 -61.764  0.00  0.00    +0.000 HD
ENDROOT
BRANCH   4  12
ATOM     11  O   UNL     1     -64.338 -46.416 -58.116  0.00  0.00    +0.000 OA
ATOM     12  C   UNL     1     -64.027 -46.487 -59.480  0.00  0.00    +0.000 C 
ATOM     13  C   UNL     1     -65.052 -47.225 -60.131  0.00  0.00    +0.000 C 
ATOM     14  C   UNL     1     -66.251 -47.799 -59.374  0.00  0.00    +0.000 C 
ATOM     15  C   UNL     1     -65.470 -47.119 -58.251  0.00  0.00    +0.000 C 
ENDBRANCH   4  12
TORSDOF 1
ENDMDL
MODEL 4
REMARK VINA RESULT:      -4.0     26.286     27.163
REMARK  Name = 5386_Tegafur.pdbqt.pdb
REMARK  1 active torsions:
REMARK  status: ('A' for Active; 'I' for Inactive)
REMARK    1  A    between atoms: N_4  and  C_12
REMARK                            x       y       z     vdW  Elec       q    Type
REMARK                         _______ _______ _______ _____ _____    ______ ____
ROOT
ATOM      1  F   UNL     1     -70.317 -55.699 -33.458  0.00  0.00    +0.000 F 
ATOM      2  O   UNL     1     -66.426 -59.061 -35.207  0.00  0.00    +0.000 OA
ATOM      3  O   UNL     1     -68.900 -57.412 -31.708  0.00  0.00    +0.000 OA
ATOM      4  N   UNL     1     -68.220 -57.602 -35.708  0.00  0.00    +0.000 N 
ATOM      5  N   UNL     1     -67.747 -58.272 -33.506  0.00  0.00    +0.000 N 
ATOM      6  C   UNL     1     -67.381 -58.372 -34.869  0.00  0.00    +0.000 C 
ATOM      7  C   UNL     1     -69.211 -56.904 -35.116  0.00  0.00    +0.000 C 
ATOM      8  C   UNL     1     -69.617 -56.756 -33.901  0.00  0.00    +0.000 C 
ATOM      9  C   UNL     1     -68.754 -57.493 -32.922  0.00  0.00    +0.000 C 
ATOM     10  H   UNL     1     -67.151 -58.775 -32.863  0.00  0.00    +0.000 HD
ENDROOT
BRANCH   4  12
ATOM     11  O   UNL     1     -68.173 -58.646 -37.899  0.00  0.00    +0.000 OA
ATOM     12  C   UNL     1     -68.076 -57.527 -37.063  0.00  0.00    +0.000 C 
ATOM     13  C   UNL     1     -67.808 -56.390 -37.871  0.00  0.00    +0.000 C 
ATOM     14  C   UNL     1     -67.669 -56.485 -39.392  0.00  0.00    +0.000 C 
ATOM     15  C   UNL     1     -67.944 -57.939 -39.013  0.00  0.00    +0.000 C 
ENDBRANCH   4  12
TORSDOF 1
ENDMDL
MODEL 5
REMARK VINA RESULT:      -4.0     18.659     19.293
REMARK  Name = 5386_Tegafur.pdbqt.pdb
REMARK  1 active torsions:
REMARK  status: ('A' for Active; 'I' for Inactive)
REMARK    1  A    between atoms: N_4  and  C_12
REMARK                            x       y       z     vdW  Elec       q    Type
REMARK                         _______ _______ _______ _____ _____    ______ ____
ROOT
ATOM      1  F   UNL     1     -60.661 -47.376 -79.366  0.00  0.00    +0.000 F 
ATOM      2  O   UNL     1     -58.858 -51.206 -75.963  0.00  0.00    +0.000 OA
ATOM      3  O   UNL     1     -62.378 -49.311 -78.222  0.00  0.00    +0.000 OA
ATOM      4  N   UNL     1     -58.380 -49.500 -77.530  0.00  0.00    +0.000 N 
ATOM      5  N   UNL     1     -60.568 -50.281 -77.179  0.00  0.00    +0.000 N 
ATOM      6  C   UNL     1     -59.206 -50.398 -76.816  0.00  0.00    +0.000 C 
ATOM      7  C   UNL     1     -58.981 -48.684 -78.420  0.00  0.00    +0.000 C 
ATOM      8  C   UNL     1     -60.197 -48.510 -78.816  0.00  0.00    +0.000 C 
ATOM      9  C   UNL     1     -61.164 -49.383 -78.075  0.00  0.00    +0.000 C 
ATOM     10  H   UNL     1     -61.203 -50.877 -76.667  0.00  0.00    +0.000 HD
ENDROOT
BRANCH   4  12
ATOM     11  O   UNL     1     -56.439 -48.686 -76.321  0.00  0.00    +0.000 OA
ATOM     12  C   UNL     1     -57.029 -49.413 -77.362  0.00  0.00    +0.000 C 
ATOM     13  C   UNL     1     -55.992 -49.987 -78.146  0.00  0.00    +0.000 C 
ATOM     14  C   UNL     1     -54.512 -49.781 -77.817  0.00  0.00    +0.000 C 
ATOM     15  C   UNL     1     -55.191 -48.982 -76.707  0.00  0.00    +0.000 C 
ENDBRANCH   4  12
TORSDOF 1
ENDMDL
MODEL 6
REMARK VINA RESULT:      -4.0      2.568      4.403
REMARK  Name = 5386_Tegafur.pdbqt.pdb
REMARK  1 active torsions:
REMARK  status: ('A' for Active; 'I' for Inactive)
REMARK    1  A    between atoms: N_4  and  C_12
REMARK                            x       y       z     vdW  Elec       q    Type
REMARK                         _______ _______ _______ _____ _____    ______ ____
ROOT
ATOM      1  F   UNL     1     -60.461 -44.275 -59.030  0.00  0.00    +0.000 F 
ATOM      2  O   UNL     1     -64.665 -47.414 -60.434  0.00  0.00    +0.000 OA
ATOM      3  O   UNL     1     -60.727 -45.375 -61.623  0.00  0.00    +0.000 OA
ATOM      4  N   UNL     1     -63.417 -46.338 -58.737  0.00  0.00    +0.000 N 
ATOM      5  N   UNL     1     -62.650 -46.450 -60.955  0.00  0.00    +0.000 N 
ATOM      6  C   UNL     1     -63.680 -46.795 -60.049  0.00  0.00    +0.000 C 
ATOM      7  C   UNL     1     -62.268 -45.660 -58.539  0.00  0.00    +0.000 C 
ATOM      8  C   UNL     1     -61.282 -45.305 -59.291  0.00  0.00    +0.000 C 
ATOM      9  C   UNL     1     -61.492 -45.697 -60.722  0.00  0.00    +0.000 C 
ATOM     10  H   UNL     1     -62.813 -46.722 -61.915  0.00  0.00    +0.000 HD
ENDROOT
BRANCH   4  12
ATOM     11  O   UNL     1     -65.635 -46.306 -57.750  0.00  0.00    +0.000 OA
ATOM     12  C   UNL     1     -64.256 -46.540 -57.680  0.00  0.00    +0.000 C 
ATOM     13  C   UNL     1     -63.948 -46.989 -56.367  0.00  0.00    +0.000 C 
ATOM     14  C   UNL     1     -65.020 -47.155 -55.289  0.00  0.00    +0.000 C 
ATOM     15  C   UNL     1     -65.846 -46.664 -56.477  0.00  0.00    +0.000 C 
ENDBRANCH   4  12
TORSDOF 1
ENDMDL
MODEL 7
REMARK VINA RESULT:      -4.0     44.965     45.910
REMARK  Name = 5386_Tegafur.pdbqt.pdb
REMARK  1 active torsions:
REMARK  status: ('A' for Active; 'I' for Inactive)
REMARK    1  A    between atoms: N_4  and  C_12
REMARK                            x       y       z     vdW  Elec       q    Type
REMARK                         _______ _______ _______ _____ _____    ______ ____
ROOT
ATOM      1  F   UNL     1     -65.275 -59.854 -14.712  0.00  0.00    +0.000 F 
ATOM      2  O   UNL     1     -63.718 -54.894 -13.137  0.00  0.00    +0.000 OA
ATOM      3  O   UNL     1     -64.202 -59.350 -12.143  0.00  0.00    +0.000 OA
ATOM      4  N   UNL     1     -64.382 -56.353 -14.877  0.00  0.00    +0.000 N 
ATOM      5  N   UNL     1     -63.896 -57.142 -12.718  0.00  0.00    +0.000 N 
ATOM      6  C   UNL     1     -63.978 -56.013 -13.566  0.00  0.00    +0.000 C 
ATOM      7  C   UNL     1     -64.630 -57.655 -15.128  0.00  0.00    +0.000 C 
ATOM      8  C   UNL     1     -64.581 -58.739 -14.431  0.00  0.00    +0.000 C 
ATOM      9  C   UNL     1     -64.212 -58.477 -13.002  0.00  0.00    +0.000 C 
ATOM     10  H   UNL     1     -63.648 -56.943 -11.759  0.00  0.00    +0.000 HD
ENDROOT
BRANCH   4  12
ATOM     11  O   UNL     1     -63.519 -55.137 -16.793  0.00  0.00    +0.000 OA
ATOM     12  C   UNL     1     -64.539 -55.445 -15.884  0.00  0.00    +0.000 C 
ATOM     13  C   UNL     1     -65.677 -54.659 -16.210  0.00  0.00    +0.000 C 
ATOM     14  C   UNL     1     -65.680 -53.674 -17.381  0.00  0.00    +0.000 C 
ATOM     15  C   UNL     1     -64.264 -54.244 -17.457  0.00  0.00    +0.000 C 
ENDBRANCH   4  12
TORSDOF 1
ENDMDL
MODEL 8
REMARK VINA RESULT:      -4.0     18.676     20.026
REMARK  Name = 5386_Tegafur.pdbqt.pdb
REMARK  1 active torsions:
REMARK  status: ('A' for Active; 'I' for Inactive)
REMARK    1  A    between atoms: N_4  and  C_12
REMARK                            x       y       z     vdW  Elec       q    Type
REMARK                         _______ _______ _______ _____ _____    ______ ____
ROOT
ATOM      1  F   UNL     1     -65.685 -60.502 -74.372  0.00  0.00    +0.000 F 
ATOM      2  O   UNL     1     -65.713 -60.588 -68.941  0.00  0.00    +0.000 OA
ATOM      3  O   UNL     1     -67.158 -58.636 -72.838  0.00  0.00    +0.000 OA
ATOM      4  N   UNL     1     -65.174 -61.655 -70.983  0.00  0.00    +0.000 N 
ATOM      5  N   UNL     1     -66.479 -59.702 -70.914  0.00  0.00    +0.000 N 
ATOM      6  C   UNL     1     -65.769 -60.668 -70.163  0.00  0.00    +0.000 C 
ATOM      7  C   UNL     1     -65.355 -61.542 -72.314  0.00  0.00    +0.000 C 
ATOM      8  C   UNL     1     -65.978 -60.711 -73.079  0.00  0.00    +0.000 C 
ATOM      9  C   UNL     1     -66.601 -59.588 -72.305  0.00  0.00    +0.000 C 
ATOM     10  H   UNL     1     -66.889 -58.954 -70.373  0.00  0.00    +0.000 HD
ENDROOT
BRANCH   4  12
ATOM     11  O   UNL     1     -64.785 -63.407 -69.348  0.00  0.00    +0.000 OA
ATOM     12  C   UNL     1     -64.434 -62.697 -70.502  0.00  0.00    +0.000 C 
ATOM     13  C   UNL     1     -63.231 -63.250 -71.016  0.00  0.00    +0.000 C 
ATOM     14  C   UNL     1     -62.521 -64.425 -70.343  0.00  0.00    +0.000 C 
ATOM     15  C   UNL     1     -63.724 -64.222 -69.425  0.00  0.00    +0.000 C 
ENDBRANCH   4  12
TORSDOF 1
ENDMDL
MODEL 9
REMARK VINA RESULT:      -3.8     23.079     23.998
REMARK  Name = 5386_Tegafur.pdbqt.pdb
REMARK  1 active torsions:
REMARK  status: ('A' for Active; 'I' for Inactive)
REMARK    1  A    between atoms: N_4  and  C_12
REMARK                            x       y       z     vdW  Elec       q    Type
REMARK                         _______ _______ _______ _____ _____    ______ ____
ROOT
ATOM      1  F   UNL     1     -67.030 -53.497 -40.234  0.00  0.00    +0.000 F 
ATOM      2  O   UNL     1     -67.904 -58.763 -39.225  0.00  0.00    +0.000 OA
ATOM      3  O   UNL     1     -66.265 -55.531 -42.045  0.00  0.00    +0.000 OA
ATOM      4  N   UNL     1     -67.853 -56.530 -38.443  0.00  0.00    +0.000 N 
ATOM      5  N   UNL     1     -67.020 -57.120 -40.560  0.00  0.00    +0.000 N 
ATOM      6  C   UNL     1     -67.627 -57.577 -39.366  0.00  0.00    +0.000 C 
ATOM      7  C   UNL     1     -67.477 -55.289 -38.814  0.00  0.00    +0.000 C 
ATOM      8  C   UNL     1     -66.923 -54.784 -39.863  0.00  0.00    +0.000 C 
ATOM      9  C   UNL     1     -66.691 -55.810 -40.931  0.00  0.00    +0.000 C 
ATOM     10  H   UNL     1     -66.874 -57.827 -41.266  0.00  0.00    +0.000 HD
ENDROOT
BRANCH   4  12
ATOM     11  O   UNL     1     -67.687 -57.028 -36.073  0.00  0.00    +0.000 OA
ATOM     12  C   UNL     1     -68.427 -56.709 -37.218  0.00  0.00    +0.000 C 
ATOM     13  C   UNL     1     -69.798 -56.627 -36.853  0.00  0.00    +0.000 C 
ATOM     14  C   UNL     1     -70.276 -56.865 -35.419  0.00  0.00    +0.000 C 
ATOM     15  C   UNL     1     -68.768 -57.066 -35.282  0.00  0.00    +0.000 C 
ENDBRANCH   4  12
TORSDOF 1
ENDMDL
