MODEL 1
REMARK VINA RESULT:      -5.5      0.000      0.000
REMARK  Name = 5470187_Zerumbone.pdbqt.pdb
REMARK  0 active torsions:
REMARK  status: ('A' for Active; 'I' for Inactive)
REMARK                            x       y       z     vdW  Elec       q    Type
REMARK                         _______ _______ _______ _____ _____    ______ ____
ROOT
ATOM      1  O   UNL     1     -67.053 -58.748 -32.164  0.00  0.00    +0.000 OA
ATOM      2  C   UNL     1     -70.727 -55.931 -30.603  0.00  0.00    +0.000 C 
ATOM      3  C   UNL     1     -71.547 -55.302 -31.665  0.00  0.00    +0.000 C 
ATOM      4  C   UNL     1     -71.609 -56.851 -29.726  0.00  0.00    +0.000 C 
ATOM      5  C   UNL     1     -70.057 -54.828 -29.744  0.00  0.00    +0.000 C 
ATOM      6  C   UNL     1     -69.676 -56.739 -31.300  0.00  0.00    +0.000 C 
ATOM      7  C   UNL     1     -72.124 -54.860 -33.022  0.00  0.00    +0.000 C 
ATOM      8  C   UNL     1     -72.285 -54.745 -34.307  0.00  0.00    +0.000 C 
ATOM      9  C   UNL     1     -71.290 -55.468 -35.014  0.00  0.00    +0.000 C 
ATOM     10  C   UNL     1     -70.075 -56.379 -35.197  0.00  0.00    +0.000 C 
ATOM     11  C   UNL     1     -68.863 -57.359 -31.942  0.00  0.00    +0.000 C 
ATOM     12  C   UNL     1     -73.651 -54.583 -34.886  0.00  0.00    +0.000 C 
ATOM     13  C   UNL     1     -68.898 -57.285 -34.822  0.00  0.00    +0.000 C 
ATOM     14  C   UNL     1     -67.969 -58.008 -34.267  0.00  0.00    +0.000 C 
ATOM     15  C   UNL     1     -67.896 -58.090 -32.763  0.00  0.00    +0.000 C 
ATOM     16  C   UNL     1     -67.006 -58.715 -35.190  0.00  0.00    +0.000 C 
ENDROOT
TORSDOF 0
ENDMDL
MODEL 2
REMARK VINA RESULT:      -5.3     23.601     26.862
REMARK  Name = 5470187_Zerumbone.pdbqt.pdb
REMARK  0 active torsions:
REMARK  status: ('A' for Active; 'I' for Inactive)
REMARK                            x       y       z     vdW  Elec       q    Type
REMARK                         _______ _______ _______ _____ _____    ______ ____
ROOT
ATOM      1  O   UNL     1     -64.655 -56.221 -58.142  0.00  0.00    +0.000 OA
ATOM      2  C   UNL     1     -60.055 -56.328 -59.786  0.00  0.00    +0.000 C 
ATOM      3  C   UNL     1     -59.011 -56.533 -58.753  0.00  0.00    +0.000 C 
ATOM      4  C   UNL     1     -60.012 -57.479 -60.819  0.00  0.00    +0.000 C 
ATOM      5  C   UNL     1     -59.839 -54.959 -60.477  0.00  0.00    +0.000 C 
ATOM      6  C   UNL     1     -61.370 -56.332 -59.067  0.00  0.00    +0.000 C 
ATOM      7  C   UNL     1     -58.270 -56.756 -57.423  0.00  0.00    +0.000 C 
ATOM      8  C   UNL     1     -58.058 -56.940 -56.153  0.00  0.00    +0.000 C 
ATOM      9  C   UNL     1     -59.274 -56.917 -55.423  0.00  0.00    +0.000 C 
ATOM     10  C   UNL     1     -60.786 -56.824 -55.208  0.00  0.00    +0.000 C 
ATOM     11  C   UNL     1     -62.381 -56.344 -58.408  0.00  0.00    +0.000 C 
ATOM     12  C   UNL     1     -56.919 -57.788 -55.693  0.00  0.00    +0.000 C 
ATOM     13  C   UNL     1     -62.272 -56.680 -55.550  0.00  0.00    +0.000 C 
ATOM     14  C   UNL     1     -63.453 -56.539 -56.076  0.00  0.00    +0.000 C 
ATOM     15  C   UNL     1     -63.580 -56.360 -57.569  0.00  0.00    +0.000 C 
ATOM     16  C   UNL     1     -64.632 -56.554 -55.133  0.00  0.00    +0.000 C 
ENDROOT
TORSDOF 0
ENDMDL
MODEL 3
REMARK VINA RESULT:      -5.1     24.500     27.343
REMARK  Name = 5470187_Zerumbone.pdbqt.pdb
REMARK  0 active torsions:
REMARK  status: ('A' for Active; 'I' for Inactive)
REMARK                            x       y       z     vdW  Elec       q    Type
REMARK                         _______ _______ _______ _____ _____    ______ ____
ROOT
ATOM      1  O   UNL     1     -62.598 -61.134 -58.026  0.00  0.00    +0.000 OA
ATOM      2  C   UNL     1     -61.550 -56.668 -56.343  0.00  0.00    +0.000 C 
ATOM      3  C   UNL     1     -60.787 -55.798 -57.270  0.00  0.00    +0.000 C 
ATOM      4  C   UNL     1     -62.915 -56.021 -56.011  0.00  0.00    +0.000 C 
ATOM      5  C   UNL     1     -60.723 -56.903 -55.054  0.00  0.00    +0.000 C 
ATOM      6  C   UNL     1     -61.758 -57.969 -57.057  0.00  0.00    +0.000 C 
ATOM      7  C   UNL     1     -60.023 -55.241 -58.484  0.00  0.00    +0.000 C 
ATOM      8  C   UNL     1     -59.477 -55.169 -59.662  0.00  0.00    +0.000 C 
ATOM      9  C   UNL     1     -59.618 -56.392 -60.366  0.00  0.00    +0.000 C 
ATOM     10  C   UNL     1     -60.072 -57.833 -60.608  0.00  0.00    +0.000 C 
ATOM     11  C   UNL     1     -61.875 -58.982 -57.702  0.00  0.00    +0.000 C 
ATOM     12  C   UNL     1     -59.446 -53.873 -60.402  0.00  0.00    +0.000 C 
ATOM     13  C   UNL     1     -60.738 -59.186 -60.341  0.00  0.00    +0.000 C 
ATOM     14  C   UNL     1     -61.368 -60.233 -59.894  0.00  0.00    +0.000 C 
ATOM     15  C   UNL     1     -61.988 -60.192 -58.520  0.00  0.00    +0.000 C 
ATOM     16  C   UNL     1     -61.423 -61.441 -60.798  0.00  0.00    +0.000 C 
ENDROOT
TORSDOF 0
ENDMDL
MODEL 4
REMARK VINA RESULT:      -5.0     47.871     51.272
REMARK  Name = 5470187_Zerumbone.pdbqt.pdb
REMARK  0 active torsions:
REMARK  status: ('A' for Active; 'I' for Inactive)
REMARK                            x       y       z     vdW  Elec       q    Type
REMARK                         _______ _______ _______ _____ _____    ______ ____
ROOT
ATOM      1  O   UNL     1     -48.828 -63.609 -75.787  0.00  0.00    +0.000 OA
ATOM      2  C   UNL     1     -47.499 -63.260 -80.476  0.00  0.00    +0.000 C 
ATOM      3  C   UNL     1     -48.224 -62.242 -81.273  0.00  0.00    +0.000 C 
ATOM      4  C   UNL     1     -45.986 -62.937 -80.454  0.00  0.00    +0.000 C 
ATOM      5  C   UNL     1     -47.754 -64.666 -81.077  0.00  0.00    +0.000 C 
ATOM      6  C   UNL     1     -48.060 -63.192 -79.088  0.00  0.00    +0.000 C 
ATOM      7  C   UNL     1     -49.175 -61.119 -81.724  0.00  0.00    +0.000 C 
ATOM      8  C   UNL     1     -50.093 -60.199 -81.683  0.00  0.00    +0.000 C 
ATOM      9  C   UNL     1     -50.680 -60.119 -80.394  0.00  0.00    +0.000 C 
ATOM     10  C   UNL     1     -50.889 -60.464 -78.918  0.00  0.00    +0.000 C 
ATOM     11  C   UNL     1     -48.570 -63.073 -78.002  0.00  0.00    +0.000 C 
ATOM     12  C   UNL     1     -49.978 -58.979 -82.535  0.00  0.00    +0.000 C 
ATOM     13  C   UNL     1     -50.679 -61.158 -77.569  0.00  0.00    +0.000 C 
ATOM     14  C   UNL     1     -50.322 -61.875 -76.544  0.00  0.00    +0.000 C 
ATOM     15  C   UNL     1     -49.222 -62.895 -76.702  0.00  0.00    +0.000 C 
ATOM     16  C   UNL     1     -51.058 -61.636 -75.248  0.00  0.00    +0.000 C 
ENDROOT
TORSDOF 0
ENDMDL
MODEL 5
REMARK VINA RESULT:      -4.9     29.138     32.241
REMARK  Name = 5470187_Zerumbone.pdbqt.pdb
REMARK  0 active torsions:
REMARK  status: ('A' for Active; 'I' for Inactive)
REMARK                            x       y       z     vdW  Elec       q    Type
REMARK                         _______ _______ _______ _____ _____    ______ ____
ROOT
ATOM      1  O   UNL     1     -61.068 -60.400 -63.929  0.00  0.00    +0.000 OA
ATOM      2  C   UNL     1     -59.141 -57.554 -60.456  0.00  0.00    +0.000 C 
ATOM      3  C   UNL     1     -57.741 -57.123 -60.686  0.00  0.00    +0.000 C 
ATOM      4  C   UNL     1     -60.069 -56.319 -60.372  0.00  0.00    +0.000 C 
ATOM      5  C   UNL     1     -59.218 -58.391 -59.155  0.00  0.00    +0.000 C 
ATOM      6  C   UNL     1     -59.521 -58.403 -61.631  0.00  0.00    +0.000 C 
ATOM      7  C   UNL     1     -56.338 -56.908 -61.282  0.00  0.00    +0.000 C 
ATOM      8  C   UNL     1     -55.330 -56.977 -62.099  0.00  0.00    +0.000 C 
ATOM      9  C   UNL     1     -55.630 -57.801 -63.214  0.00  0.00    +0.000 C 
ATOM     10  C   UNL     1     -56.483 -58.700 -64.111  0.00  0.00    +0.000 C 
ATOM     11  C   UNL     1     -59.741 -59.077 -62.607  0.00  0.00    +0.000 C 
ATOM     12  C   UNL     1     -54.397 -55.821 -62.247  0.00  0.00    +0.000 C 
ATOM     13  C   UNL     1     -57.704 -59.484 -64.603  0.00  0.00    +0.000 C 
ATOM     14  C   UNL     1     -58.850 -60.063 -64.812  0.00  0.00    +0.000 C 
ATOM     15  C   UNL     1     -59.960 -59.889 -63.806  0.00  0.00    +0.000 C 
ATOM     16  C   UNL     1     -58.982 -60.893 -66.066  0.00  0.00    +0.000 C 
ENDROOT
TORSDOF 0
ENDMDL
MODEL 6
REMARK VINA RESULT:      -4.9      9.412     11.928
REMARK  Name = 5470187_Zerumbone.pdbqt.pdb
REMARK  0 active torsions:
REMARK  status: ('A' for Active; 'I' for Inactive)
REMARK                            x       y       z     vdW  Elec       q    Type
REMARK                         _______ _______ _______ _____ _____    ______ ____
ROOT
ATOM      1  O   UNL     1     -74.864 -52.887 -20.070  0.00  0.00    +0.000 OA
ATOM      2  C   UNL     1     -75.232 -53.912 -24.833  0.00  0.00    +0.000 C 
ATOM      3  C   UNL     1     -74.659 -55.212 -25.254  0.00  0.00    +0.000 C 
ATOM      4  C   UNL     1     -76.746 -53.873 -25.149  0.00  0.00    +0.000 C 
ATOM      5  C   UNL     1     -74.489 -52.760 -25.555  0.00  0.00    +0.000 C 
ATOM      6  C   UNL     1     -75.012 -53.810 -23.355  0.00  0.00    +0.000 C 
ATOM      7  C   UNL     1     -73.972 -56.590 -25.272  0.00  0.00    +0.000 C 
ATOM      8  C   UNL     1     -73.366 -57.663 -24.859  0.00  0.00    +0.000 C 
ATOM      9  C   UNL     1     -73.104 -57.599 -23.467  0.00  0.00    +0.000 C 
ATOM     10  C   UNL     1     -73.122 -57.005 -22.056  0.00  0.00    +0.000 C 
ATOM     11  C   UNL     1     -74.790 -53.808 -22.168  0.00  0.00    +0.000 C 
ATOM     12  C   UNL     1     -73.625 -58.978 -25.516  0.00  0.00    +0.000 C 
ATOM     13  C   UNL     1     -73.413 -56.013 -20.927  0.00  0.00    +0.000 C 
ATOM     14  C   UNL     1     -73.769 -55.033 -20.148  0.00  0.00    +0.000 C 
ATOM     15  C   UNL     1     -74.496 -53.849 -20.735  0.00  0.00    +0.000 C 
ATOM     16  C   UNL     1     -73.411 -55.153 -18.686  0.00  0.00    +0.000 C 
ENDROOT
TORSDOF 0
ENDMDL
MODEL 7
REMARK VINA RESULT:      -4.8     32.295     35.511
REMARK  Name = 5470187_Zerumbone.pdbqt.pdb
REMARK  0 active torsions:
REMARK  status: ('A' for Active; 'I' for Inactive)
REMARK                            x       y       z     vdW  Elec       q    Type
REMARK                         _______ _______ _______ _____ _____    ______ ____
ROOT
ATOM      1  O   UNL     1     -56.001 -57.903 -61.181  0.00  0.00    +0.000 OA
ATOM      2  C   UNL     1     -53.460 -55.674 -64.709  0.00  0.00    +0.000 C 
ATOM      3  C   UNL     1     -53.743 -56.133 -66.090  0.00  0.00    +0.000 C 
ATOM      4  C   UNL     1     -53.793 -54.169 -64.571  0.00  0.00    +0.000 C 
ATOM      5  C   UNL     1     -51.972 -55.942 -64.370  0.00  0.00    +0.000 C 
ATOM      6  C   UNL     1     -54.340 -56.481 -63.804  0.00  0.00    +0.000 C 
ATOM      7  C   UNL     1     -54.311 -56.869 -67.317  0.00  0.00    +0.000 C 
ATOM      8  C   UNL     1     -55.022 -57.686 -68.036  0.00  0.00    +0.000 C 
ATOM      9  C   UNL     1     -55.850 -58.498 -67.220  0.00  0.00    +0.000 C 
ATOM     10  C   UNL     1     -56.474 -59.017 -65.922  0.00  0.00    +0.000 C 
ATOM     11  C   UNL     1     -55.078 -57.176 -63.151  0.00  0.00    +0.000 C 
ATOM     12  C   UNL     1     -55.468 -57.294 -69.406  0.00  0.00    +0.000 C 
ATOM     13  C   UNL     1     -56.763 -59.136 -64.423  0.00  0.00    +0.000 C 
ATOM     14  C   UNL     1     -56.841 -59.052 -63.127  0.00  0.00    +0.000 C 
ATOM     15  C   UNL     1     -55.986 -58.045 -62.399  0.00  0.00    +0.000 C 
ATOM     16  C   UNL     1     -57.792 -59.997 -62.433  0.00  0.00    +0.000 C 
ENDROOT
TORSDOF 0
ENDMDL
MODEL 8
REMARK VINA RESULT:      -4.8      9.461     11.716
REMARK  Name = 5470187_Zerumbone.pdbqt.pdb
REMARK  0 active torsions:
REMARK  status: ('A' for Active; 'I' for Inactive)
REMARK                            x       y       z     vdW  Elec       q    Type
REMARK                         _______ _______ _______ _____ _____    ______ ____
ROOT
ATOM      1  O   UNL     1     -75.677 -51.453 -23.551  0.00  0.00    +0.000 OA
ATOM      2  C   UNL     1     -74.048 -54.999 -20.610  0.00  0.00    +0.000 C 
ATOM      3  C   UNL     1     -73.609 -56.242 -21.288  0.00  0.00    +0.000 C 
ATOM      4  C   UNL     1     -72.868 -54.377 -19.826  0.00  0.00    +0.000 C 
ATOM      5  C   UNL     1     -75.232 -55.316 -19.661  0.00  0.00    +0.000 C 
ATOM      6  C   UNL     1     -74.499 -54.063 -21.689  0.00  0.00    +0.000 C 
ATOM      7  C   UNL     1     -73.267 -57.310 -22.342  0.00  0.00    +0.000 C 
ATOM      8  C   UNL     1     -73.120 -57.891 -23.495  0.00  0.00    +0.000 C 
ATOM      9  C   UNL     1     -73.566 -57.055 -24.551  0.00  0.00    +0.000 C 
ATOM     10  C   UNL     1     -74.133 -55.792 -25.203  0.00  0.00    +0.000 C 
ATOM     11  C   UNL     1     -74.845 -53.377 -22.619  0.00  0.00    +0.000 C 
ATOM     12  C   UNL     1     -72.000 -58.852 -23.719  0.00  0.00    +0.000 C 
ATOM     13  C   UNL     1     -74.700 -54.374 -25.318  0.00  0.00    +0.000 C 
ATOM     14  C   UNL     1     -75.157 -53.165 -25.166  0.00  0.00    +0.000 C 
ATOM     15  C   UNL     1     -75.258 -52.583 -23.778  0.00  0.00    +0.000 C 
ATOM     16  C   UNL     1     -75.573 -52.426 -26.415  0.00  0.00    +0.000 C 
ENDROOT
TORSDOF 0
ENDMDL
MODEL 9
REMARK VINA RESULT:      -4.8      7.564     10.612
REMARK  Name = 5470187_Zerumbone.pdbqt.pdb
REMARK  0 active torsions:
REMARK  status: ('A' for Active; 'I' for Inactive)
REMARK                            x       y       z     vdW  Elec       q    Type
REMARK                         _______ _______ _______ _____ _____    ______ ____
ROOT
ATOM      1  O   UNL     1     -74.912 -54.145 -22.500  0.00  0.00    +0.000 OA
ATOM      2  C   UNL     1     -74.436 -56.446 -26.785  0.00  0.00    +0.000 C 
ATOM      3  C   UNL     1     -73.671 -57.715 -26.748  0.00  0.00    +0.000 C 
ATOM      4  C   UNL     1     -75.880 -56.712 -27.274  0.00  0.00    +0.000 C 
ATOM      5  C   UNL     1     -73.718 -55.434 -27.712  0.00  0.00    +0.000 C 
ATOM      6  C   UNL     1     -74.458 -55.923 -25.381  0.00  0.00    +0.000 C 
ATOM      7  C   UNL     1     -72.848 -58.934 -26.293  0.00  0.00    +0.000 C 
ATOM      8  C   UNL     1     -72.202 -59.758 -25.523  0.00  0.00    +0.000 C 
ATOM      9  C   UNL     1     -72.164 -59.288 -24.186  0.00  0.00    +0.000 C 
ATOM     10  C   UNL     1     -72.461 -58.348 -23.015  0.00  0.00    +0.000 C 
ATOM     11  C   UNL     1     -74.421 -55.572 -24.227  0.00  0.00    +0.000 C 
ATOM     12  C   UNL     1     -72.217 -61.224 -25.805  0.00  0.00    +0.000 C 
ATOM     13  C   UNL     1     -73.025 -57.143 -22.256  0.00  0.00    +0.000 C 
ATOM     14  C   UNL     1     -73.598 -56.053 -21.835  0.00  0.00    +0.000 C 
ATOM     15  C   UNL     1     -74.347 -55.186 -22.816  0.00  0.00    +0.000 C 
ATOM     16  C   UNL     1     -73.457 -55.725 -20.369  0.00  0.00    +0.000 C 
ENDROOT
TORSDOF 0
ENDMDL
