MODEL 1
REMARK VINA RESULT:      -4.6      0.000      0.000
REMARK  Name = 5azacytidine.pdbqt.pdb
REMARK  5 active torsions:
REMARK  status: ('A' for Active; 'I' for Inactive)
REMARK    1  A    between atoms: C2*_2  and  O2*_16
REMARK    2  A    between atoms: C3*_3  and  O3*_21
REMARK    3  A    between atoms: C4*_4  and  C5*_18
REMARK    4  A    between atoms: C1*_5  and  N_6
REMARK    5  A    between atoms: C5*_18  and  O5*_19
REMARK                            x       y       z     vdW  Elec       q    Type
REMARK                         _______ _______ _______ _____ _____    ______ ____
ROOT
ATOM      1  O4* UNL     1     -62.937 -45.991 -58.464  0.00  0.00    +0.000 OA
ATOM      2  C2* UNL     1     -62.695 -46.915 -60.564  0.00  0.00    +0.000 A 
ATOM      3  C3* UNL     1     -61.396 -46.578 -60.066  0.00  0.00    +0.000 A 
ATOM      4  C4* UNL     1     -61.563 -46.016 -58.757  0.00  0.00    +0.000 A 
ATOM      5  C1* UNL     1     -63.653 -46.521 -59.559  0.00  0.00    +0.000 A 
ENDROOT
BRANCH   5   6
ATOM      6  N   UNL     1     -65.015 -46.554 -59.563  0.00  0.00    +0.000 N 
ATOM      7  C   UNL     1     -65.834 -47.526 -60.126  0.00  0.00    +0.000 A 
ATOM      8  O   UNL     1     -65.407 -48.499 -60.745  0.00  0.00    +0.000 OA
ATOM      9  N   UNL     1     -67.200 -47.315 -59.959  0.00  0.00    +0.000 NA
ATOM     10  C   UNL     1     -67.636 -46.262 -59.314  0.00  0.00    +0.000 A 
ATOM     11  N   UNL     1     -66.816 -45.282 -58.781  0.00  0.00    +0.000 NA
ATOM     12  C   UNL     1     -65.706 -45.580 -58.975  0.00  0.00    +0.000 A 
ATOM     13  N   UNL     1     -68.976 -46.100 -59.173  0.00  0.00    +0.000 N 
ATOM     14  H   UNL     1     -69.271 -45.140 -59.053  0.00  0.00    +0.000 HD
ATOM     15  H   UNL     1     -69.521 -46.634 -59.839  0.00  0.00    +0.000 HD
ENDBRANCH   5   6
BRANCH   2  16
ATOM     16  O2* UNL     1     -62.925 -46.916 -61.912  0.00  0.00    +0.000 OA
ATOM     17  H2* UNL     1     -63.885 -46.887 -62.120  0.00  0.00    +0.000 HD
ENDBRANCH   2  16
BRANCH   3  18
ATOM     18  O3* UNL     1     -60.398 -46.180 -60.911  0.00  0.00    +0.000 OA
ATOM     19  H3* UNL     1     -60.507 -46.611 -61.779  0.00  0.00    +0.000 HD
ENDBRANCH   3  18
BRANCH   4  20
ATOM     20  C5* UNL     1     -60.616 -45.298 -58.001  0.00  0.00    +0.000 C 
BRANCH  20  21
ATOM     21  O5* UNL     1     -59.716 -44.620 -57.296  0.00  0.00    +0.000 OA
ATOM     22  H5* UNL     1     -60.084 -44.384 -56.426  0.00  0.00    +0.000 HD
ENDBRANCH  20  21
ENDBRANCH   4  20
TORSDOF 5
ENDMDL
MODEL 2
REMARK VINA RESULT:      -4.4     39.028     40.632
REMARK  Name = 5azacytidine.pdbqt.pdb
REMARK  5 active torsions:
REMARK  status: ('A' for Active; 'I' for Inactive)
REMARK    1  A    between atoms: C2*_2  and  O2*_16
REMARK    2  A    between atoms: C3*_3  and  O3*_21
REMARK    3  A    between atoms: C4*_4  and  C5*_18
REMARK    4  A    between atoms: C1*_5  and  N_6
REMARK    5  A    between atoms: C5*_18  and  O5*_19
REMARK                            x       y       z     vdW  Elec       q    Type
REMARK                         _______ _______ _______ _____ _____    ______ ____
ROOT
ATOM      1  O4* UNL     1     -44.441 -59.880 -91.023  0.00  0.00    +0.000 OA
ATOM      2  C2* UNL     1     -46.448 -61.002 -91.203  0.00  0.00    +0.000 A 
ATOM      3  C3* UNL     1     -46.627 -59.899 -90.308  0.00  0.00    +0.000 A 
ATOM      4  C4* UNL     1     -45.374 -59.206 -90.215  0.00  0.00    +0.000 A 
ATOM      5  C1* UNL     1     -45.068 -60.991 -91.625  0.00  0.00    +0.000 A 
ENDROOT
BRANCH   5   6
ATOM      6  N   UNL     1     -44.369 -61.856 -92.412  0.00  0.00    +0.000 N 
ATOM      7  C   UNL     1     -43.982 -61.670 -93.734  0.00  0.00    +0.000 A 
ATOM      8  O   UNL     1     -44.266 -60.671 -94.390  0.00  0.00    +0.000 OA
ATOM      9  N   UNL     1     -43.251 -62.719 -94.287  0.00  0.00    +0.000 NA
ATOM     10  C   UNL     1     -42.976 -63.784 -93.577  0.00  0.00    +0.000 A 
ATOM     11  N   UNL     1     -43.389 -63.976 -92.271  0.00  0.00    +0.000 NA
ATOM     12  C   UNL     1     -43.975 -63.030 -91.923  0.00  0.00    +0.000 A 
ATOM     13  N   UNL     1     -42.258 -64.778 -94.158  0.00  0.00    +0.000 N 
ATOM     14  H   UNL     1     -42.413 -65.695 -93.758  0.00  0.00    +0.000 HD
ATOM     15  H   UNL     1     -42.267 -64.748 -95.170  0.00  0.00    +0.000 HD
ENDBRANCH   5   6
BRANCH   2  16
ATOM     16  O2* UNL     1     -47.216 -62.124 -91.058  0.00  0.00    +0.000 OA
ATOM     17  H2* UNL     1     -48.122 -61.998 -91.417  0.00  0.00    +0.000 HD
ENDBRANCH   2  16
BRANCH   3  18
ATOM     18  O3* UNL     1     -47.499 -59.976 -89.259  0.00  0.00    +0.000 OA
ATOM     19  H3* UNL     1     -47.022 -59.830 -88.420  0.00  0.00    +0.000 HD
ENDBRANCH   3  18
BRANCH   4  20
ATOM     20  C5* UNL     1     -44.992 -58.242 -89.263  0.00  0.00    +0.000 C 
BRANCH  20  21
ATOM     21  O5* UNL     1     -44.632 -57.338 -88.357  0.00  0.00    +0.000 OA
ATOM     22  H5* UNL     1     -44.493 -57.769 -87.495  0.00  0.00    +0.000 HD
ENDBRANCH  20  21
ENDBRANCH   4  20
TORSDOF 5
ENDMDL
MODEL 3
REMARK VINA RESULT:      -4.3      3.014      5.552
REMARK  Name = 5azacytidine.pdbqt.pdb
REMARK  5 active torsions:
REMARK  status: ('A' for Active; 'I' for Inactive)
REMARK    1  A    between atoms: C2*_2  and  O2*_16
REMARK    2  A    between atoms: C3*_3  and  O3*_21
REMARK    3  A    between atoms: C4*_4  and  C5*_18
REMARK    4  A    between atoms: C1*_5  and  N_6
REMARK    5  A    between atoms: C5*_18  and  O5*_19
REMARK                            x       y       z     vdW  Elec       q    Type
REMARK                         _______ _______ _______ _____ _____    ______ ____
ROOT
ATOM      1  O4* UNL     1     -64.837 -46.736 -57.601  0.00  0.00    +0.000 OA
ATOM      2  C2* UNL     1     -64.330 -46.514 -59.840  0.00  0.00    +0.000 A 
ATOM      3  C3* UNL     1     -65.571 -47.218 -59.725  0.00  0.00    +0.000 A 
ATOM      4  C4* UNL     1     -65.877 -47.338 -58.328  0.00  0.00    +0.000 A 
ATOM      5  C1* UNL     1     -63.870 -46.239 -58.501  0.00  0.00    +0.000 A 
ENDROOT
BRANCH   5   6
ATOM      6  N   UNL     1     -62.719 -45.661 -58.053  0.00  0.00    +0.000 N 
ATOM      7  C   UNL     1     -61.421 -45.937 -58.464  0.00  0.00    +0.000 A 
ATOM      8  O   UNL     1     -61.141 -46.798 -59.295  0.00  0.00    +0.000 OA
ATOM      9  N   UNL     1     -60.433 -45.173 -57.849  0.00  0.00    +0.000 NA
ATOM     10  C   UNL     1     -60.750 -44.275 -56.951  0.00  0.00    +0.000 A 
ATOM     11  N   UNL     1     -62.043 -44.025 -56.524  0.00  0.00    +0.000 NA
ATOM     12  C   UNL     1     -62.771 -44.713 -57.120  0.00  0.00    +0.000 A 
ATOM     13  N   UNL     1     -59.753 -43.552 -56.381  0.00  0.00    +0.000 N 
ATOM     14  H   UNL     1     -59.969 -43.194 -55.460  0.00  0.00    +0.000 HD
ATOM     15  H   UNL     1     -58.840 -43.981 -56.468  0.00  0.00    +0.000 HD
ENDBRANCH   5   6
BRANCH   2  16
ATOM     16  O2* UNL     1     -63.520 -46.740 -60.918  0.00  0.00    +0.000 OA
ATOM     17  H2* UNL     1     -62.980 -45.952 -61.144  0.00  0.00    +0.000 HD
ENDBRANCH   2  16
BRANCH   3  18
ATOM     18  O3* UNL     1     -65.928 -48.173 -60.636  0.00  0.00    +0.000 OA
ATOM     19  H3* UNL     1     -66.900 -48.251 -60.670  0.00  0.00    +0.000 HD
ENDBRANCH   3  18
BRANCH   4  20
ATOM     20  C5* UNL     1     -66.835 -48.175 -57.726  0.00  0.00    +0.000 C 
BRANCH  20  21
ATOM     21  O5* UNL     1     -67.735 -48.974 -57.160  0.00  0.00    +0.000 OA
ATOM     22  H5* UNL     1     -68.531 -49.026 -57.718  0.00  0.00    +0.000 HD
ENDBRANCH  20  21
ENDBRANCH   4  20
TORSDOF 5
ENDMDL
MODEL 4
REMARK VINA RESULT:      -4.3     38.538     40.143
REMARK  Name = 5azacytidine.pdbqt.pdb
REMARK  5 active torsions:
REMARK  status: ('A' for Active; 'I' for Inactive)
REMARK    1  A    between atoms: C2*_2  and  O2*_16
REMARK    2  A    between atoms: C3*_3  and  O3*_21
REMARK    3  A    between atoms: C4*_4  and  C5*_18
REMARK    4  A    between atoms: C1*_5  and  N_6
REMARK    5  A    between atoms: C5*_18  and  O5*_19
REMARK                            x       y       z     vdW  Elec       q    Type
REMARK                         _______ _______ _______ _____ _____    ______ ____
ROOT
ATOM      1  O4* UNL     1     -44.590 -59.473 -91.141  0.00  0.00    +0.000 OA
ATOM      2  C2* UNL     1     -46.477 -60.696 -90.623  0.00  0.00    +0.000 A 
ATOM      3  C3* UNL     1     -46.645 -59.368 -90.114  0.00  0.00    +0.000 A 
ATOM      4  C4* UNL     1     -45.469 -58.619 -90.454  0.00  0.00    +0.000 A 
ATOM      5  C1* UNL     1     -45.175 -60.754 -91.244  0.00  0.00    +0.000 A 
ENDROOT
BRANCH   5   6
ATOM      6  N   UNL     1     -44.503 -61.794 -91.813  0.00  0.00    +0.000 N 
ATOM      7  C   UNL     1     -44.091 -62.969 -91.196  0.00  0.00    +0.000 A 
ATOM      8  O   UNL     1     -44.263 -63.207 -90.003  0.00  0.00    +0.000 OA
ATOM      9  N   UNL     1     -43.439 -63.874 -92.030  0.00  0.00    +0.000 NA
ATOM     10  C   UNL     1     -43.247 -63.594 -93.295  0.00  0.00    +0.000 A 
ATOM     11  N   UNL     1     -43.634 -62.408 -93.896  0.00  0.00    +0.000 NA
ATOM     12  C   UNL     1     -44.175 -61.748 -93.102  0.00  0.00    +0.000 A 
ATOM     13  N   UNL     1     -42.610 -64.508 -94.070  0.00  0.00    +0.000 N 
ATOM     14  H   UNL     1     -42.136 -64.117 -94.874  0.00  0.00    +0.000 HD
ATOM     15  H   UNL     1     -42.069 -65.181 -93.541  0.00  0.00    +0.000 HD
ENDBRANCH   5   6
BRANCH   2  16
ATOM     16  O2* UNL     1     -47.098 -61.743 -90.002  0.00  0.00    +0.000 OA
ATOM     17  H2* UNL     1     -47.890 -61.454 -89.497  0.00  0.00    +0.000 HD
ENDBRANCH   2  16
BRANCH   3  18
ATOM     18  O3* UNL     1     -47.354 -59.136 -88.969  0.00  0.00    +0.000 OA
ATOM     19  H3* UNL     1     -46.786 -58.692 -88.312  0.00  0.00    +0.000 HD
ENDBRANCH   3  18
BRANCH   4  20
ATOM     20  C5* UNL     1     -45.063 -57.373 -89.938  0.00  0.00    +0.000 C 
BRANCH  20  21
ATOM     21  O5* UNL     1     -44.690 -56.195 -89.450  0.00  0.00    +0.000 OA
ATOM     22  H5* UNL     1     -45.315 -55.907 -88.762  0.00  0.00    +0.000 HD
ENDBRANCH  20  21
ENDBRANCH   4  20
TORSDOF 5
ENDMDL
MODEL 5
REMARK VINA RESULT:      -4.2     23.284     24.434
REMARK  Name = 5azacytidine.pdbqt.pdb
REMARK  5 active torsions:
REMARK  status: ('A' for Active; 'I' for Inactive)
REMARK    1  A    between atoms: C2*_2  and  O2*_16
REMARK    2  A    between atoms: C3*_3  and  O3*_21
REMARK    3  A    between atoms: C4*_4  and  C5*_18
REMARK    4  A    between atoms: C1*_5  and  N_6
REMARK    5  A    between atoms: C5*_18  and  O5*_19
REMARK                            x       y       z     vdW  Elec       q    Type
REMARK                         _______ _______ _______ _____ _____    ______ ____
ROOT
ATOM      1  O4* UNL     1     -56.048 -64.523 -72.604  0.00  0.00    +0.000 OA
ATOM      2  C2* UNL     1     -55.790 -66.795 -72.901  0.00  0.00    +0.000 A 
ATOM      3  C3* UNL     1     -54.506 -66.175 -73.024  0.00  0.00    +0.000 A 
ATOM      4  C4* UNL     1     -54.682 -64.765 -72.826  0.00  0.00    +0.000 A 
ATOM      5  C1* UNL     1     -56.750 -65.745 -72.660  0.00  0.00    +0.000 A 
ENDROOT
BRANCH   5   6
ATOM      6  N   UNL     1     -58.107 -65.787 -72.540  0.00  0.00    +0.000 N 
ATOM      7  C   UNL     1     -59.022 -66.261 -73.473  0.00  0.00    +0.000 A 
ATOM      8  O   UNL     1     -58.704 -66.688 -74.580  0.00  0.00    +0.000 OA
ATOM      9  N   UNL     1     -60.355 -66.202 -73.073  0.00  0.00    +0.000 NA
ATOM     10  C   UNL     1     -60.676 -65.724 -71.897  0.00  0.00    +0.000 A 
ATOM     11  N   UNL     1     -59.762 -65.226 -70.984  0.00  0.00    +0.000 NA
ATOM     12  C   UNL     1     -58.690 -65.343 -71.429  0.00  0.00    +0.000 A 
ATOM     13  N   UNL     1     -61.987 -65.691 -71.549  0.00  0.00    +0.000 N 
ATOM     14  H   UNL     1     -62.221 -64.982 -70.866  0.00  0.00    +0.000 HD
ATOM     15  H   UNL     1     -62.618 -65.745 -72.340  0.00  0.00    +0.000 HD
ENDBRANCH   5   6
BRANCH   2  16
ATOM     16  O2* UNL     1     -56.049 -67.957 -73.574  0.00  0.00    +0.000 OA
ATOM     17  H2* UNL     1     -56.133 -67.811 -74.541  0.00  0.00    +0.000 HD
ENDBRANCH   2  16
BRANCH   3  18
ATOM     18  O3* UNL     1     -53.555 -66.682 -73.866  0.00  0.00    +0.000 OA
ATOM     19  H3* UNL     1     -53.554 -66.182 -74.703  0.00  0.00    +0.000 HD
ENDBRANCH   3  18
BRANCH   4  20
ATOM     20  C5* UNL     1     -53.769 -63.734 -73.120  0.00  0.00    +0.000 C 
BRANCH  20  21
ATOM     21  O5* UNL     1     -52.913 -62.758 -73.407  0.00  0.00    +0.000 OA
ATOM     22  H5* UNL     1     -52.355 -63.015 -74.161  0.00  0.00    +0.000 HD
ENDBRANCH  20  21
ENDBRANCH   4  20
TORSDOF 5
ENDMDL
MODEL 6
REMARK VINA RESULT:      -4.2     37.098     38.536
REMARK  Name = 5azacytidine.pdbqt.pdb
REMARK  5 active torsions:
REMARK  status: ('A' for Active; 'I' for Inactive)
REMARK    1  A    between atoms: C2*_2  and  O2*_16
REMARK    2  A    between atoms: C3*_3  and  O3*_21
REMARK    3  A    between atoms: C4*_4  and  C5*_18
REMARK    4  A    between atoms: C1*_5  and  N_6
REMARK    5  A    between atoms: C5*_18  and  O5*_19
REMARK                            x       y       z     vdW  Elec       q    Type
REMARK                         _______ _______ _______ _____ _____    ______ ____
ROOT
ATOM      1  O4* UNL     1     -53.498 -60.103 -92.489  0.00  0.00    +0.000 OA
ATOM      2  C2* UNL     1     -54.953 -61.809 -91.947  0.00  0.00    +0.000 A 
ATOM      3  C3* UNL     1     -54.691 -61.047 -90.764  0.00  0.00    +0.000 A 
ATOM      4  C4* UNL     1     -53.794 -59.984 -91.120  0.00  0.00    +0.000 A 
ATOM      5  C1* UNL     1     -54.181 -61.221 -93.014  0.00  0.00    +0.000 A 
ENDROOT
BRANCH   5   6
ATOM      6  N   UNL     1     -54.018 -61.602 -94.313  0.00  0.00    +0.000 N 
ATOM      7  C   UNL     1     -53.466 -62.788 -94.780  0.00  0.00    +0.000 A 
ATOM      8  O   UNL     1     -53.008 -63.661 -94.046  0.00  0.00    +0.000 OA
ATOM      9  N   UNL     1     -53.445 -62.922 -96.166  0.00  0.00    +0.000 NA
ATOM     10  C   UNL     1     -53.919 -61.972 -96.933  0.00  0.00    +0.000 A 
ATOM     11  N   UNL     1     -54.440 -60.780 -96.462  0.00  0.00    +0.000 NA
ATOM     12  C   UNL     1     -54.413 -60.797 -95.297  0.00  0.00    +0.000 A 
ATOM     13  N   UNL     1     -53.881 -62.149 -98.278  0.00  0.00    +0.000 N 
ATOM     14  H   UNL     1     -53.863 -61.291 -98.813  0.00  0.00    +0.000 HD
ATOM     15  H   UNL     1     -53.214 -62.851 -98.576  0.00  0.00    +0.000 HD
ENDBRANCH   5   6
BRANCH   2  16
ATOM     16  O2* UNL     1     -55.264 -63.137 -91.842  0.00  0.00    +0.000 OA
ATOM     17  H2* UNL     1     -56.114 -63.351 -92.287  0.00  0.00    +0.000 HD
ENDBRANCH   2  16
BRANCH   3  18
ATOM     18  O3* UNL     1     -54.669 -61.639 -89.532  0.00  0.00    +0.000 OA
ATOM     19  H3* UNL     1     -55.279 -61.173 -88.930  0.00  0.00    +0.000 HD
ENDBRANCH   3  18
BRANCH   4  20
ATOM     20  C5* UNL     1     -53.051 -59.159 -90.255  0.00  0.00    +0.000 C 
BRANCH  20  21
ATOM     21  O5* UNL     1     -52.357 -58.374 -89.436  0.00  0.00    +0.000 OA
ATOM     22  H5* UNL     1     -51.755 -57.807 -89.950  0.00  0.00    +0.000 HD
ENDBRANCH  20  21
ENDBRANCH   4  20
TORSDOF 5
ENDMDL
MODEL 7
REMARK VINA RESULT:      -4.2     28.524     29.184
REMARK  Name = 5azacytidine.pdbqt.pdb
REMARK  5 active torsions:
REMARK  status: ('A' for Active; 'I' for Inactive)
REMARK    1  A    between atoms: C2*_2  and  O2*_16
REMARK    2  A    between atoms: C3*_3  and  O3*_21
REMARK    3  A    between atoms: C4*_4  and  C5*_18
REMARK    4  A    between atoms: C1*_5  and  N_6
REMARK    5  A    between atoms: C5*_18  and  O5*_19
REMARK                            x       y       z     vdW  Elec       q    Type
REMARK                         _______ _______ _______ _____ _____    ______ ____
ROOT
ATOM      1  O4* UNL     1     -68.735 -57.034 -34.688  0.00  0.00    +0.000 OA
ATOM      2  C2* UNL     1     -67.643 -58.929 -33.957  0.00  0.00    +0.000 A 
ATOM      3  C3* UNL     1     -67.150 -58.598 -35.260  0.00  0.00    +0.000 A 
ATOM      4  C4* UNL     1     -67.831 -57.413 -35.695  0.00  0.00    +0.000 A 
ATOM      5  C1* UNL     1     -68.651 -57.954 -33.621  0.00  0.00    +0.000 A 
ENDROOT
BRANCH   5   6
ATOM      6  N   UNL     1     -69.472 -57.855 -32.537  0.00  0.00    +0.000 N 
ATOM      7  C   UNL     1     -70.423 -58.774 -32.113  0.00  0.00    +0.000 A 
ATOM      8  O   UNL     1     -70.673 -59.818 -32.711  0.00  0.00    +0.000 OA
ATOM      9  N   UNL     1     -71.106 -58.421 -30.952  0.00  0.00    +0.000 NA
ATOM     10  C   UNL     1     -70.841 -57.294 -30.341  0.00  0.00    +0.000 A 
ATOM     11  N   UNL     1     -69.912 -56.369 -30.785  0.00  0.00    +0.000 NA
ATOM     12  C   UNL     1     -69.405 -56.784 -31.749  0.00  0.00    +0.000 A 
ATOM     13  N   UNL     1     -71.529 -56.995 -29.210  0.00  0.00    +0.000 N 
ATOM     14  H   UNL     1     -71.600 -56.005 -29.013  0.00  0.00    +0.000 HD
ATOM     15  H   UNL     1     -72.395 -57.512 -29.114  0.00  0.00    +0.000 HD
ENDBRANCH   5   6
BRANCH   2  16
ATOM     16  O2* UNL     1     -67.641 -60.232 -33.543  0.00  0.00    +0.000 OA
ATOM     17  H2* UNL     1     -67.234 -60.335 -32.655  0.00  0.00    +0.000 HD
ENDBRANCH   2  16
BRANCH   3  18
ATOM     18  O3* UNL     1     -66.749 -59.573 -36.131  0.00  0.00    +0.000 OA
ATOM     19  H3* UNL     1     -65.846 -59.383 -36.447  0.00  0.00    +0.000 HD
ENDBRANCH   3  18
BRANCH   4  20
ATOM     20  C5* UNL     1     -67.881 -56.878 -36.997  0.00  0.00    +0.000 C 
BRANCH  20  21
ATOM     21  O5* UNL     1     -67.939 -56.374 -38.226  0.00  0.00    +0.000 OA
ATOM     22  H5* UNL     1     -67.298 -55.648 -38.319  0.00  0.00    +0.000 HD
ENDBRANCH  20  21
ENDBRANCH   4  20
TORSDOF 5
ENDMDL
MODEL 8
REMARK VINA RESULT:      -4.2     29.802     30.730
REMARK  Name = 5azacytidine.pdbqt.pdb
REMARK  5 active torsions:
REMARK  status: ('A' for Active; 'I' for Inactive)
REMARK    1  A    between atoms: C2*_2  and  O2*_16
REMARK    2  A    between atoms: C3*_3  and  O3*_21
REMARK    3  A    between atoms: C4*_4  and  C5*_18
REMARK    4  A    between atoms: C1*_5  and  N_6
REMARK    5  A    between atoms: C5*_18  and  O5*_19
REMARK                            x       y       z     vdW  Elec       q    Type
REMARK                         _______ _______ _______ _____ _____    ______ ____
ROOT
ATOM      1  O4* UNL     1     -70.788 -58.124 -31.022  0.00  0.00    +0.000 OA
ATOM      2  C2* UNL     1     -69.926 -56.048 -30.500  0.00  0.00    +0.000 A 
ATOM      3  C3* UNL     1     -70.876 -56.409 -29.492  0.00  0.00    +0.000 A 
ATOM      4  C4* UNL     1     -71.394 -57.705 -29.824  0.00  0.00    +0.000 A 
ATOM      5  C1* UNL     1     -69.898 -57.121 -31.465  0.00  0.00    +0.000 A 
ENDROOT
BRANCH   5   6
ATOM      6  N   UNL     1     -69.224 -57.246 -32.642  0.00  0.00    +0.000 N 
ATOM      7  C   UNL     1     -67.987 -57.846 -32.847  0.00  0.00    +0.000 A 
ATOM      8  O   UNL     1     -67.308 -58.328 -31.943  0.00  0.00    +0.000 OA
ATOM      9  N   UNL     1     -67.546 -57.849 -34.167  0.00  0.00    +0.000 NA
ATOM     10  C   UNL     1     -68.274 -57.312 -35.114  0.00  0.00    +0.000 A 
ATOM     11  N   UNL     1     -69.491 -56.690 -34.899  0.00  0.00    +0.000 NA
ATOM     12  C   UNL     1     -69.753 -56.765 -33.765  0.00  0.00    +0.000 A 
ATOM     13  N   UNL     1     -67.804 -57.343 -36.386  0.00  0.00    +0.000 N 
ATOM     14  H   UNL     1     -68.158 -56.605 -36.981  0.00  0.00    +0.000 HD
ATOM     15  H   UNL     1     -66.804 -57.495 -36.446  0.00  0.00    +0.000 HD
ENDBRANCH   5   6
BRANCH   2  16
ATOM     16  O2* UNL     1     -69.711 -54.729 -30.787  0.00  0.00    +0.000 OA
ATOM     17  H2* UNL     1     -70.544 -54.208 -30.768  0.00  0.00    +0.000 HD
ENDBRANCH   2  16
BRANCH   3  18
ATOM     18  O3* UNL     1     -71.631 -55.460 -28.861  0.00  0.00    +0.000 OA
ATOM     19  H3* UNL     1     -71.058 -54.888 -28.318  0.00  0.00    +0.000 HD
ENDBRANCH   3  18
BRANCH   4  20
ATOM     20  C5* UNL     1     -72.531 -58.341 -29.291  0.00  0.00    +0.000 C 
BRANCH  20  21
ATOM     21  O5* UNL     1     -73.609 -58.932 -28.785  0.00  0.00    +0.000 OA
ATOM     22  H5* UNL     1     -74.165 -58.276 -28.330  0.00  0.00    +0.000 HD
ENDBRANCH  20  21
ENDBRANCH   4  20
TORSDOF 5
ENDMDL
MODEL 9
REMARK VINA RESULT:      -4.1     44.709     45.758
REMARK  Name = 5azacytidine.pdbqt.pdb
REMARK  5 active torsions:
REMARK  status: ('A' for Active; 'I' for Inactive)
REMARK    1  A    between atoms: C2*_2  and  O2*_16
REMARK    2  A    between atoms: C3*_3  and  O3*_21
REMARK    3  A    between atoms: C4*_4  and  C5*_18
REMARK    4  A    between atoms: C1*_5  and  N_6
REMARK    5  A    between atoms: C5*_18  and  O5*_19
REMARK                            x       y       z     vdW  Elec       q    Type
REMARK                         _______ _______ _______ _____ _____    ______ ____
ROOT
ATOM      1  O4* UNL     1     -64.500 -56.482 -15.529  0.00  0.00    +0.000 OA
ATOM      2  C2* UNL     1     -62.601 -57.609 -16.198  0.00  0.00    +0.000 A 
ATOM      3  C3* UNL     1     -62.554 -56.284 -16.738  0.00  0.00    +0.000 A 
ATOM      4  C4* UNL     1     -63.735 -55.594 -16.305  0.00  0.00    +0.000 A 
ATOM      5  C1* UNL     1     -63.837 -57.726 -15.462  0.00  0.00    +0.000 A 
ENDROOT
BRANCH   5   6
ATOM      6  N   UNL     1     -64.396 -58.791 -14.821  0.00  0.00    +0.000 N 
ATOM      7  C   UNL     1     -64.805 -59.994 -15.383  0.00  0.00    +0.000 A 
ATOM      8  O   UNL     1     -64.737 -60.240 -16.585  0.00  0.00    +0.000 OA
ATOM      9  N   UNL     1     -65.325 -60.918 -14.481  0.00  0.00    +0.000 NA
ATOM     10  C   UNL     1     -65.408 -60.630 -13.206  0.00  0.00    +0.000 A 
ATOM     11  N   UNL     1     -65.027 -59.418 -12.657  0.00  0.00    +0.000 NA
ATOM     12  C   UNL     1     -64.599 -58.743 -13.506  0.00  0.00    +0.000 A 
ATOM     13  N   UNL     1     -65.919 -61.564 -12.365  0.00  0.00    +0.000 N 
ATOM     14  H   UNL     1     -66.332 -61.187 -11.522  0.00  0.00    +0.000 HD
ATOM     15  H   UNL     1     -66.474 -62.271 -12.832  0.00  0.00    +0.000 HD
ENDBRANCH   5   6
BRANCH   2  16
ATOM     16  O2* UNL     1     -61.980 -58.632 -16.858  0.00  0.00    +0.000 OA
ATOM     17  H2* UNL     1     -62.048 -58.535 -17.833  0.00  0.00    +0.000 HD
ENDBRANCH   2  16
BRANCH   3  18
ATOM     18  O3* UNL     1     -61.963 -56.035 -17.946  0.00  0.00    +0.000 OA
ATOM     19  H3* UNL     1     -62.337 -56.626 -18.625  0.00  0.00    +0.000 HD
ENDBRANCH   3  18
BRANCH   4  20
ATOM     20  C5* UNL     1     -64.254 -54.382 -16.799  0.00  0.00    +0.000 C 
BRANCH  20  21
ATOM     21  O5* UNL     1     -64.750 -53.237 -17.257  0.00  0.00    +0.000 OA
ATOM     22  H5* UNL     1     -65.143 -53.373 -18.137  0.00  0.00    +0.000 HD
ENDBRANCH  20  21
ENDBRANCH   4  20
TORSDOF 5
ENDMDL
