MODEL 1
REMARK VINA RESULT:      -5.5      0.000      0.000
REMARK  Name = 60953_Capecitabine.pdbqt.pdb
REMARK  6 active torsions:
REMARK  status: ('A' for Active; 'I' for Inactive)
REMARK    1  A    between atoms: N_4  and  C_16
REMARK    2  A    between atoms: C_11  and  O_23
REMARK    3  A    between atoms: C_14  and  O_19
REMARK    4  A    between atoms: C_15  and  O_21
REMARK    5  A    between atoms: O_23  and  C_24
REMARK    6  A    between atoms: C_25  and  C_26
REMARK                            x       y       z     vdW  Elec       q    Type
REMARK                         _______ _______ _______ _____ _____    ______ ____
ROOT
ATOM      1  F   UNL     1     -71.678 -60.010 -30.043  0.00  0.00    +0.000 F 
ATOM      2  O   UNL     1     -69.916 -55.135 -31.399  0.00  0.00    +0.000 OA
ATOM      3  O   UNL     1     -72.927 -55.697 -27.867  0.00  0.00    +0.000 OA
ATOM      4  N   UNL     1     -70.053 -57.398 -31.909  0.00  0.00    +0.000 N 
ATOM      5  N   UNL     1     -71.313 -56.419 -30.116  0.00  0.00    +0.000 NA
ATOM      6  N   UNL     1     -72.693 -57.811 -28.810  0.00  0.00    +0.000 N 
ATOM      7  C   UNL     1     -70.657 -58.550 -31.552  0.00  0.00    +0.000 C 
ATOM      8  C   UNL     1     -70.398 -56.241 -31.163  0.00  0.00    +0.000 C 
ATOM      9  C   UNL     1     -71.538 -58.821 -30.655  0.00  0.00    +0.000 C 
ATOM     10  C   UNL     1     -71.825 -57.586 -29.859  0.00  0.00    +0.000 C 
ATOM     11  C   UNL     1     -73.161 -56.896 -27.893  0.00  0.00    +0.000 C 
ATOM     12  H   UNL     1     -73.022 -58.754 -28.653  0.00  0.00    +0.000 HD
ENDROOT
BRANCH   4  16
ATOM     13  O   UNL     1     -69.593 -57.032 -34.257  0.00  0.00    +0.000 OA
ATOM     14  C   UNL     1     -67.805 -57.859 -33.057  0.00  0.00    +0.000 A 
ATOM     15  C   UNL     1     -67.415 -57.752 -34.430  0.00  0.00    +0.000 A 
ATOM     16  C   UNL     1     -69.182 -57.430 -32.965  0.00  0.00    +0.000 A 
ATOM     17  C   UNL     1     -68.536 -57.224 -35.160  0.00  0.00    +0.000 A 
ATOM     18  C   UNL     1     -68.791 -57.133 -36.625  0.00  0.00    +0.000 C 
BRANCH  14  19
ATOM     19  O   UNL     1     -67.220 -58.805 -32.264  0.00  0.00    +0.000 OA
ATOM     20  H   UNL     1     -67.409 -59.719 -32.576  0.00  0.00    +0.000 HD
ENDBRANCH  14  19
BRANCH  15  21
ATOM     21  O   UNL     1     -66.493 -58.609 -34.972  0.00  0.00    +0.000 OA
ATOM     22  H   UNL     1     -65.718 -58.691 -34.384  0.00  0.00    +0.000 HD
ENDBRANCH  15  21
ENDBRANCH   4  16
BRANCH  11  23
ATOM     23  O   UNL     1     -73.962 -57.551 -27.000  0.00  0.00    +0.000 OA
BRANCH  23  24
ATOM     24  C   UNL     1     -73.811 -57.203 -25.724  0.00  0.00    +0.000 C 
ATOM     25  C   UNL     1     -73.636 -56.803 -24.255  0.00  0.00    +0.000 C 
BRANCH  25  26
ATOM     26  C   UNL     1     -73.459 -56.405 -22.787  0.00  0.00    +0.000 C 
ATOM     27  C   UNL     1     -73.287 -56.001 -21.320  0.00  0.00    +0.000 C 
ATOM     28  C   UNL     1     -73.124 -55.589 -19.853  0.00  0.00    +0.000 C 
ENDBRANCH  25  26
ENDBRANCH  23  24
ENDBRANCH  11  23
TORSDOF 6
ENDMDL
MODEL 2
REMARK VINA RESULT:      -5.2     13.276     17.125
REMARK  Name = 60953_Capecitabine.pdbqt.pdb
REMARK  6 active torsions:
REMARK  status: ('A' for Active; 'I' for Inactive)
REMARK    1  A    between atoms: N_4  and  C_16
REMARK    2  A    between atoms: C_11  and  O_23
REMARK    3  A    between atoms: C_14  and  O_19
REMARK    4  A    between atoms: C_15  and  O_21
REMARK    5  A    between atoms: O_23  and  C_24
REMARK    6  A    between atoms: C_25  and  C_26
REMARK                            x       y       z     vdW  Elec       q    Type
REMARK                         _______ _______ _______ _____ _____    ______ ____
ROOT
ATOM      1  F   UNL     1     -61.332 -55.888 -18.268  0.00  0.00    +0.000 F 
ATOM      2  O   UNL     1     -65.941 -55.208 -15.623  0.00  0.00    +0.000 OA
ATOM      3  O   UNL     1     -64.826 -52.461 -19.238  0.00  0.00    +0.000 OA
ATOM      4  N   UNL     1     -63.866 -56.245 -15.739  0.00  0.00    +0.000 N 
ATOM      5  N   UNL     1     -64.486 -54.471 -17.230  0.00  0.00    +0.000 NA
ATOM      6  N   UNL     1     -62.955 -53.799 -18.890  0.00  0.00    +0.000 N 
ATOM      7  C   UNL     1     -62.692 -56.240 -16.402  0.00  0.00    +0.000 C 
ATOM      8  C   UNL     1     -64.837 -55.299 -16.155  0.00  0.00    +0.000 C 
ATOM      9  C   UNL     1     -62.243 -55.504 -17.358  0.00  0.00    +0.000 C 
ATOM     10  C   UNL     1     -63.322 -54.563 -17.801  0.00  0.00    +0.000 C 
ATOM     11  C   UNL     1     -63.705 -52.844 -19.538  0.00  0.00    +0.000 C 
ATOM     12  H   UNL     1     -62.044 -53.953 -19.300  0.00  0.00    +0.000 HD
ENDROOT
BRANCH   4  16
ATOM     13  O   UNL     1     -64.484 -58.450 -14.954  0.00  0.00    +0.000 OA
ATOM     14  C   UNL     1     -63.815 -57.003 -13.287  0.00  0.00    +0.000 A 
ATOM     15  C   UNL     1     -64.209 -58.238 -12.680  0.00  0.00    +0.000 A 
ATOM     16  C   UNL     1     -64.018 -57.139 -14.711  0.00  0.00    +0.000 A 
ATOM     17  C   UNL     1     -64.610 -59.131 -13.733  0.00  0.00    +0.000 A 
ATOM     18  C   UNL     1     -65.331 -60.433 -13.685  0.00  0.00    +0.000 C 
BRANCH  14  19
ATOM     19  O   UNL     1     -63.934 -55.840 -12.582  0.00  0.00    +0.000 OA
ATOM     20  H   UNL     1     -63.060 -55.480 -12.309  0.00  0.00    +0.000 HD
ENDBRANCH  14  19
BRANCH  15  21
ATOM     21  O   UNL     1     -64.738 -58.267 -11.417  0.00  0.00    +0.000 OA
ATOM     22  H   UNL     1     -64.079 -58.598 -10.778  0.00  0.00    +0.000 HD
ENDBRANCH  15  21
ENDBRANCH   4  16
BRANCH  11  23
ATOM     23  O   UNL     1     -62.977 -52.364 -20.590  0.00  0.00    +0.000 OA
BRANCH  23  24
ATOM     24  C   UNL     1     -62.373 -53.281 -21.343  0.00  0.00    +0.000 C 
ATOM     25  C   UNL     1     -61.679 -54.339 -22.207  0.00  0.00    +0.000 C 
BRANCH  25  26
ATOM     26  C   UNL     1     -60.984 -55.397 -23.069  0.00  0.00    +0.000 C 
ATOM     27  C   UNL     1     -60.287 -56.457 -23.925  0.00  0.00    +0.000 C 
ATOM     28  C   UNL     1     -59.587 -57.527 -24.772  0.00  0.00    +0.000 C 
ENDBRANCH  25  26
ENDBRANCH  23  24
ENDBRANCH  11  23
TORSDOF 6
ENDMDL
MODEL 3
REMARK VINA RESULT:      -5.2     44.118     47.436
REMARK  Name = 60953_Capecitabine.pdbqt.pdb
REMARK  6 active torsions:
REMARK  status: ('A' for Active; 'I' for Inactive)
REMARK    1  A    between atoms: N_4  and  C_16
REMARK    2  A    between atoms: C_11  and  O_23
REMARK    3  A    between atoms: C_14  and  O_19
REMARK    4  A    between atoms: C_15  and  O_21
REMARK    5  A    between atoms: O_23  and  C_24
REMARK    6  A    between atoms: C_25  and  C_26
REMARK                            x       y       z     vdW  Elec       q    Type
REMARK                         _______ _______ _______ _____ _____    ______ ____
ROOT
ATOM      1  F   UNL     1     -55.106 -67.875 -73.794  0.00  0.00    +0.000 F 
ATOM      2  O   UNL     1     -58.900 -64.552 -71.989  0.00  0.00    +0.000 OA
ATOM      3  O   UNL     1     -54.526 -63.049 -72.670  0.00  0.00    +0.000 OA
ATOM      4  N   UNL     1     -58.260 -66.726 -72.500  0.00  0.00    +0.000 N 
ATOM      5  N   UNL     1     -56.695 -64.907 -72.492  0.00  0.00    +0.000 NA
ATOM      6  N   UNL     1     -54.452 -65.340 -73.066  0.00  0.00    +0.000 N 
ATOM      7  C   UNL     1     -57.198 -67.488 -72.833  0.00  0.00    +0.000 C 
ATOM      8  C   UNL     1     -58.013 -65.343 -72.299  0.00  0.00    +0.000 C 
ATOM      9  C   UNL     1     -55.951 -67.212 -72.986  0.00  0.00    +0.000 C 
ATOM     10  C   UNL     1     -55.750 -65.737 -72.823  0.00  0.00    +0.000 C 
ATOM     11  C   UNL     1     -53.935 -64.065 -73.001  0.00  0.00    +0.000 C 
ATOM     12  H   UNL     1     -53.781 -66.040 -73.353  0.00  0.00    +0.000 HD
ENDROOT
BRANCH   4  16
ATOM     13  O   UNL     1     -59.869 -67.897 -71.122  0.00  0.00    +0.000 OA
ATOM     14  C   UNL     1     -60.530 -67.606 -73.313  0.00  0.00    +0.000 A 
ATOM     15  C   UNL     1     -61.538 -68.362 -72.635  0.00  0.00    +0.000 A 
ATOM     16  C   UNL     1     -59.475 -67.344 -72.361  0.00  0.00    +0.000 A 
ATOM     17  C   UNL     1     -61.117 -68.522 -71.270  0.00  0.00    +0.000 A 
ATOM     18  C   UNL     1     -61.631 -69.408 -70.188  0.00  0.00    +0.000 C 
BRANCH  14  19
ATOM     19  O   UNL     1     -60.354 -67.773 -74.657  0.00  0.00    +0.000 OA
ATOM     20  H   UNL     1     -61.071 -68.313 -75.060  0.00  0.00    +0.000 HD
ENDBRANCH  14  19
BRANCH  15  21
ATOM     21  O   UNL     1     -62.305 -69.278 -73.306  0.00  0.00    +0.000 OA
ATOM     22  H   UNL     1     -62.904 -68.828 -73.932  0.00  0.00    +0.000 HD
ENDBRANCH  15  21
ENDBRANCH   4  16
BRANCH  11  23
ATOM     23  O   UNL     1     -52.617 -64.115 -73.361  0.00  0.00    +0.000 OA
BRANCH  23  24
ATOM     24  C   UNL     1     -52.260 -63.315 -74.363  0.00  0.00    +0.000 C 
ATOM     25  C   UNL     1     -51.849 -62.391 -75.514  0.00  0.00    +0.000 C 
BRANCH  25  26
ATOM     26  C   UNL     1     -51.440 -61.467 -76.665  0.00  0.00    +0.000 C 
ATOM     27  C   UNL     1     -51.036 -60.539 -77.813  0.00  0.00    +0.000 C 
ATOM     28  C   UNL     1     -50.637 -59.599 -78.957  0.00  0.00    +0.000 C 
ENDBRANCH  25  26
ENDBRANCH  23  24
ENDBRANCH  11  23
TORSDOF 6
ENDMDL
MODEL 4
REMARK VINA RESULT:      -5.2      2.655      4.545
REMARK  Name = 60953_Capecitabine.pdbqt.pdb
REMARK  6 active torsions:
REMARK  status: ('A' for Active; 'I' for Inactive)
REMARK    1  A    between atoms: N_4  and  C_16
REMARK    2  A    between atoms: C_11  and  O_23
REMARK    3  A    between atoms: C_14  and  O_19
REMARK    4  A    between atoms: C_15  and  O_21
REMARK    5  A    between atoms: O_23  and  C_24
REMARK    6  A    between atoms: C_25  and  C_26
REMARK                            x       y       z     vdW  Elec       q    Type
REMARK                         _______ _______ _______ _____ _____    ______ ____
ROOT
ATOM      1  F   UNL     1     -70.772 -58.659 -24.979  0.00  0.00    +0.000 F 
ATOM      2  O   UNL     1     -73.617 -55.749 -28.463  0.00  0.00    +0.000 OA
ATOM      3  O   UNL     1     -74.992 -56.179 -24.016  0.00  0.00    +0.000 OA
ATOM      4  N   UNL     1     -71.881 -57.250 -28.097  0.00  0.00    +0.000 N 
ATOM      5  N   UNL     1     -73.432 -56.652 -26.367  0.00  0.00    +0.000 NA
ATOM      6  N   UNL     1     -73.150 -57.585 -24.222  0.00  0.00    +0.000 N 
ATOM      7  C   UNL     1     -71.321 -58.045 -27.164  0.00  0.00    +0.000 C 
ATOM      8  C   UNL     1     -73.020 -56.504 -27.698  0.00  0.00    +0.000 C 
ATOM      9  C   UNL     1     -71.636 -58.298 -25.942  0.00  0.00    +0.000 C 
ATOM     10  C   UNL     1     -72.805 -57.446 -25.550  0.00  0.00    +0.000 C 
ATOM     11  C   UNL     1     -74.170 -56.952 -23.547  0.00  0.00    +0.000 C 
ATOM     12  H   UNL     1     -72.593 -58.196 -23.642  0.00  0.00    +0.000 HD
ENDROOT
BRANCH   4  16
ATOM     13  O   UNL     1     -71.425 -58.370 -30.194  0.00  0.00    +0.000 OA
ATOM     14  C   UNL     1     -70.555 -56.239 -30.049  0.00  0.00    +0.000 A 
ATOM     15  C   UNL     1     -70.160 -56.802 -31.304  0.00  0.00    +0.000 A 
ATOM     16  C   UNL     1     -71.326 -57.242 -29.350  0.00  0.00    +0.000 A 
ATOM     17  C   UNL     1     -70.721 -58.123 -31.382  0.00  0.00    +0.000 A 
ATOM     18  C   UNL     1     -70.446 -59.244 -32.324  0.00  0.00    +0.000 C 
BRANCH  14  19
ATOM     19  O   UNL     1     -69.762 -55.298 -29.454  0.00  0.00    +0.000 OA
ATOM     20  H   UNL     1     -69.782 -54.440 -29.934  0.00  0.00    +0.000 HD
ENDBRANCH  14  19
BRANCH  15  21
ATOM     21  O   UNL     1     -68.980 -56.441 -31.899  0.00  0.00    +0.000 OA
ATOM     22  H   UNL     1     -68.387 -56.015 -31.251  0.00  0.00    +0.000 HD
ENDBRANCH  15  21
ENDBRANCH   4  16
BRANCH  11  23
ATOM     23  O   UNL     1     -74.131 -57.345 -22.239  0.00  0.00    +0.000 OA
BRANCH  23  24
ATOM     24  C   UNL     1     -74.026 -56.365 -21.344  0.00  0.00    +0.000 C 
ATOM     25  C   UNL     1     -73.906 -55.235 -20.315  0.00  0.00    +0.000 C 
BRANCH  25  26
ATOM     26  C   UNL     1     -73.786 -54.105 -19.289  0.00  0.00    +0.000 C 
ATOM     27  C   UNL     1     -73.667 -52.970 -18.268  0.00  0.00    +0.000 C 
ATOM     28  C   UNL     1     -73.558 -51.828 -17.252  0.00  0.00    +0.000 C 
ENDBRANCH  25  26
ENDBRANCH  23  24
ENDBRANCH  11  23
TORSDOF 6
ENDMDL
MODEL 5
REMARK VINA RESULT:      -5.2      5.662     12.191
REMARK  Name = 60953_Capecitabine.pdbqt.pdb
REMARK  6 active torsions:
REMARK  status: ('A' for Active; 'I' for Inactive)
REMARK    1  A    between atoms: N_4  and  C_16
REMARK    2  A    between atoms: C_11  and  O_23
REMARK    3  A    between atoms: C_14  and  O_19
REMARK    4  A    between atoms: C_15  and  O_21
REMARK    5  A    between atoms: O_23  and  C_24
REMARK    6  A    between atoms: C_25  and  C_26
REMARK                            x       y       z     vdW  Elec       q    Type
REMARK                         _______ _______ _______ _____ _____    ______ ____
ROOT
ATOM      1  F   UNL     1     -74.710 -54.990 -24.356  0.00  0.00    +0.000 F 
ATOM      2  O   UNL     1     -72.631 -55.696 -19.469  0.00  0.00    +0.000 OA
ATOM      3  O   UNL     1     -71.947 -58.860 -22.842  0.00  0.00    +0.000 OA
ATOM      4  N   UNL     1     -74.052 -54.488 -20.855  0.00  0.00    +0.000 N 
ATOM      5  N   UNL     1     -73.013 -56.531 -21.567  0.00  0.00    +0.000 NA
ATOM      6  N   UNL     1     -73.416 -57.303 -23.756  0.00  0.00    +0.000 N 
ATOM      7  C   UNL     1     -74.618 -54.483 -22.079  0.00  0.00    +0.000 C 
ATOM      8  C   UNL     1     -73.199 -55.581 -20.553  0.00  0.00    +0.000 C 
ATOM      9  C   UNL     1     -74.563 -55.313 -23.060  0.00  0.00    +0.000 C 
ATOM     10  C   UNL     1     -73.608 -56.415 -22.717  0.00  0.00    +0.000 C 
ATOM     11  C   UNL     1     -72.611 -58.420 -23.769  0.00  0.00    +0.000 C 
ATOM     12  H   UNL     1     -73.888 -57.127 -24.632  0.00  0.00    +0.000 HD
ENDROOT
BRANCH   4  16
ATOM     13  O   UNL     1     -73.385 -52.505 -19.638  0.00  0.00    +0.000 OA
ATOM     14  C   UNL     1     -75.578 -53.134 -19.298  0.00  0.00    +0.000 A 
ATOM     15  C   UNL     1     -75.303 -51.995 -18.475  0.00  0.00    +0.000 A 
ATOM     16  C   UNL     1     -74.359 -53.461 -20.001  0.00  0.00    +0.000 A 
ATOM     17  C   UNL     1     -73.939 -51.610 -18.709  0.00  0.00    +0.000 A 
ATOM     18  C   UNL     1     -73.050 -50.671 -17.969  0.00  0.00    +0.000 C 
BRANCH  14  19
ATOM     19  O   UNL     1     -76.526 -54.035 -18.903  0.00  0.00    +0.000 OA
ATOM     20  H   UNL     1     -76.474 -54.231 -17.941  0.00  0.00    +0.000 HD
ENDBRANCH  14  19
BRANCH  15  21
ATOM     21  O   UNL     1     -75.949 -51.815 -17.281  0.00  0.00    +0.000 OA
ATOM     22  H   UNL     1     -75.542 -51.082 -16.780  0.00  0.00    +0.000 HD
ENDBRANCH  15  21
ENDBRANCH   4  16
BRANCH  11  23
ATOM     23  O   UNL     1     -72.681 -58.987 -25.011  0.00  0.00    +0.000 OA
BRANCH  23  24
ATOM     24  C   UNL     1     -72.214 -58.246 -26.013  0.00  0.00    +0.000 C 
ATOM     25  C   UNL     1     -71.674 -57.392 -27.166  0.00  0.00    +0.000 C 
BRANCH  25  26
ATOM     26  C   UNL     1     -71.133 -56.538 -28.317  0.00  0.00    +0.000 C 
ATOM     27  C   UNL     1     -70.599 -55.681 -29.467  0.00  0.00    +0.000 C 
ATOM     28  C   UNL     1     -70.071 -54.813 -30.615  0.00  0.00    +0.000 C 
ENDBRANCH  25  26
ENDBRANCH  23  24
ENDBRANCH  11  23
TORSDOF 6
ENDMDL
MODEL 6
REMARK VINA RESULT:      -5.1     10.106     14.059
REMARK  Name = 60953_Capecitabine.pdbqt.pdb
REMARK  6 active torsions:
REMARK  status: ('A' for Active; 'I' for Inactive)
REMARK    1  A    between atoms: N_4  and  C_16
REMARK    2  A    between atoms: C_11  and  O_23
REMARK    3  A    between atoms: C_14  and  O_19
REMARK    4  A    between atoms: C_15  and  O_21
REMARK    5  A    between atoms: O_23  and  C_24
REMARK    6  A    between atoms: C_25  and  C_26
REMARK                            x       y       z     vdW  Elec       q    Type
REMARK                         _______ _______ _______ _____ _____    ______ ____
ROOT
ATOM      1  F   UNL     1     -65.649 -45.871 -33.408  0.00  0.00    +0.000 F 
ATOM      2  O   UNL     1     -67.364 -50.424 -31.166  0.00  0.00    +0.000 OA
ATOM      3  O   UNL     1     -68.645 -49.262 -35.510  0.00  0.00    +0.000 OA
ATOM      4  N   UNL     1     -66.280 -48.386 -30.913  0.00  0.00    +0.000 N 
ATOM      5  N   UNL     1     -67.446 -48.965 -32.929  0.00  0.00    +0.000 NA
ATOM      6  N   UNL     1     -67.447 -47.432 -34.717  0.00  0.00    +0.000 N 
ATOM      7  C   UNL     1     -66.014 -47.220 -31.537  0.00  0.00    +0.000 C 
ATOM      8  C   UNL     1     -67.056 -49.330 -31.633  0.00  0.00    +0.000 C 
ATOM      9  C   UNL     1     -66.356 -46.759 -32.688  0.00  0.00    +0.000 C 
ATOM     10  C   UNL     1     -67.121 -47.810 -33.431  0.00  0.00    +0.000 C 
ATOM     11  C   UNL     1     -68.143 -48.158 -35.657  0.00  0.00    +0.000 C 
ATOM     12  H   UNL     1     -67.129 -46.531 -35.048  0.00  0.00    +0.000 HD
ENDROOT
BRANCH   4  16
ATOM     13  O   UNL     1     -64.667 -49.356 -29.391  0.00  0.00    +0.000 OA
ATOM     14  C   UNL     1     -66.284 -48.068 -28.367  0.00  0.00    +0.000 A 
ATOM     15  C   UNL     1     -65.443 -48.626 -27.352  0.00  0.00    +0.000 A 
ATOM     16  C   UNL     1     -65.804 -48.555 -29.640  0.00  0.00    +0.000 A 
ATOM     17  C   UNL     1     -64.435 -49.414 -28.008  0.00  0.00    +0.000 A 
ATOM     18  C   UNL     1     -63.463 -50.403 -27.464  0.00  0.00    +0.000 C 
BRANCH  14  19
ATOM     19  O   UNL     1     -67.586 -47.775 -28.075  0.00  0.00    +0.000 OA
ATOM     20  H   UNL     1     -68.057 -47.375 -28.840  0.00  0.00    +0.000 HD
ENDBRANCH  14  19
BRANCH  15  21
ATOM     21  O   UNL     1     -65.934 -48.907 -26.104  0.00  0.00    +0.000 OA
ATOM     22  H   UNL     1     -66.899 -48.763 -26.077  0.00  0.00    +0.000 HD
ENDBRANCH  15  21
ENDBRANCH   4  16
BRANCH  11  23
ATOM     23  O   UNL     1     -68.203 -47.426 -36.811  0.00  0.00    +0.000 OA
BRANCH  23  24
ATOM     24  C   UNL     1     -67.051 -47.278 -37.462  0.00  0.00    +0.000 C 
ATOM     25  C   UNL     1     -65.724 -47.108 -38.210  0.00  0.00    +0.000 C 
BRANCH  25  26
ATOM     26  C   UNL     1     -64.397 -46.938 -38.955  0.00  0.00    +0.000 C 
ATOM     27  C   UNL     1     -63.069 -46.774 -39.699  0.00  0.00    +0.000 C 
ATOM     28  C   UNL     1     -61.739 -46.624 -40.446  0.00  0.00    +0.000 C 
ENDBRANCH  25  26
ENDBRANCH  23  24
ENDBRANCH  11  23
TORSDOF 6
ENDMDL
MODEL 7
REMARK VINA RESULT:      -5.1      1.704      2.192
REMARK  Name = 60953_Capecitabine.pdbqt.pdb
REMARK  6 active torsions:
REMARK  status: ('A' for Active; 'I' for Inactive)
REMARK    1  A    between atoms: N_4  and  C_16
REMARK    2  A    between atoms: C_11  and  O_23
REMARK    3  A    between atoms: C_14  and  O_19
REMARK    4  A    between atoms: C_15  and  O_21
REMARK    5  A    between atoms: O_23  and  C_24
REMARK    6  A    between atoms: C_25  and  C_26
REMARK                            x       y       z     vdW  Elec       q    Type
REMARK                         _______ _______ _______ _____ _____    ______ ____
ROOT
ATOM      1  F   UNL     1     -73.075 -58.413 -33.014  0.00  0.00    +0.000 F 
ATOM      2  O   UNL     1     -67.869 -57.777 -31.923  0.00  0.00    +0.000 OA
ATOM      3  O   UNL     1     -71.110 -57.070 -28.629  0.00  0.00    +0.000 OA
ATOM      4  N   UNL     1     -69.526 -58.113 -33.517  0.00  0.00    +0.000 N 
ATOM      5  N   UNL     1     -70.044 -57.595 -31.232  0.00  0.00    +0.000 NA
ATOM      6  N   UNL     1     -72.306 -57.470 -30.585  0.00  0.00    +0.000 N 
ATOM      7  C   UNL     1     -70.862 -58.124 -33.699  0.00  0.00    +0.000 C 
ATOM      8  C   UNL     1     -69.064 -57.820 -32.208  0.00  0.00    +0.000 C 
ATOM      9  C   UNL     1     -71.844 -57.886 -32.902  0.00  0.00    +0.000 C 
ATOM     10  C   UNL     1     -71.310 -57.640 -31.525  0.00  0.00    +0.000 C 
ATOM     11  C   UNL     1     -72.158 -57.226 -29.237  0.00  0.00    +0.000 C 
ATOM     12  H   UNL     1     -73.268 -57.554 -30.883  0.00  0.00    +0.000 HD
ENDROOT
BRANCH   4  16
ATOM     13  O   UNL     1     -68.763 -57.517 -35.736  0.00  0.00    +0.000 OA
ATOM     14  C   UNL     1     -67.792 -59.426 -34.880  0.00  0.00    +0.000 A 
ATOM     15  C   UNL     1     -67.301 -59.229 -36.209  0.00  0.00    +0.000 A 
ATOM     16  C   UNL     1     -68.728 -58.361 -34.603  0.00  0.00    +0.000 A 
ATOM     17  C   UNL     1     -67.906 -58.030 -36.722  0.00  0.00    +0.000 A 
ATOM     18  C   UNL     1     -67.960 -57.479 -38.105  0.00  0.00    +0.000 C 
BRANCH  14  19
ATOM     19  O   UNL     1     -67.865 -60.692 -34.371  0.00  0.00    +0.000 OA
ATOM     20  H   UNL     1     -68.289 -61.320 -34.998  0.00  0.00    +0.000 HD
ENDBRANCH  14  19
BRANCH  15  21
ATOM     21  O   UNL     1     -66.940 -60.293 -36.994  0.00  0.00    +0.000 OA
ATOM     22  H   UNL     1     -66.086 -60.660 -36.698  0.00  0.00    +0.000 HD
ENDBRANCH  15  21
ENDBRANCH   4  16
BRANCH  11  23
ATOM     23  O   UNL     1     -73.400 -57.170 -28.670  0.00  0.00    +0.000 OA
BRANCH  23  24
ATOM     24  C   UNL     1     -73.427 -57.038 -27.346  0.00  0.00    +0.000 C 
ATOM     25  C   UNL     1     -73.459 -56.889 -25.821  0.00  0.00    +0.000 C 
BRANCH  25  26
ATOM     26  C   UNL     1     -73.492 -56.740 -24.297  0.00  0.00    +0.000 C 
ATOM     27  C   UNL     1     -73.521 -56.586 -22.774  0.00  0.00    +0.000 C 
ATOM     28  C   UNL     1     -73.545 -56.420 -21.251  0.00  0.00    +0.000 C 
ENDBRANCH  25  26
ENDBRANCH  23  24
ENDBRANCH  11  23
TORSDOF 6
ENDMDL
MODEL 8
REMARK VINA RESULT:      -5.1     37.840     44.255
REMARK  Name = 60953_Capecitabine.pdbqt.pdb
REMARK  6 active torsions:
REMARK  status: ('A' for Active; 'I' for Inactive)
REMARK    1  A    between atoms: N_4  and  C_16
REMARK    2  A    between atoms: C_11  and  O_23
REMARK    3  A    between atoms: C_14  and  O_19
REMARK    4  A    between atoms: C_15  and  O_21
REMARK    5  A    between atoms: O_23  and  C_24
REMARK    6  A    between atoms: C_25  and  C_26
REMARK                            x       y       z     vdW  Elec       q    Type
REMARK                         _______ _______ _______ _____ _____    ______ ____
ROOT
ATOM      1  F   UNL     1     -63.857 -62.639 -72.386  0.00  0.00    +0.000 F 
ATOM      2  O   UNL     1     -68.257 -59.708 -71.525  0.00  0.00    +0.000 OA
ATOM      3  O   UNL     1     -66.520 -60.211 -75.836  0.00  0.00    +0.000 OA
ATOM      4  N   UNL     1     -66.450 -60.865 -70.635  0.00  0.00    +0.000 N 
ATOM      5  N   UNL     1     -66.652 -60.435 -72.987  0.00  0.00    +0.000 NA
ATOM      6  N   UNL     1     -64.984 -61.256 -74.434  0.00  0.00    +0.000 N 
ATOM      7  C   UNL     1     -65.291 -61.472 -70.960  0.00  0.00    +0.000 C 
ATOM      8  C   UNL     1     -67.189 -60.290 -71.701  0.00  0.00    +0.000 C 
ATOM      9  C   UNL     1     -64.680 -61.621 -72.082  0.00  0.00    +0.000 C 
ATOM     10  C   UNL     1     -65.524 -61.053 -73.181  0.00  0.00    +0.000 C 
ATOM     11  C   UNL     1     -65.502 -60.860 -75.648  0.00  0.00    +0.000 C 
ATOM     12  H   UNL     1     -64.121 -61.775 -74.507  0.00  0.00    +0.000 HD
ENDROOT
BRANCH   4  16
ATOM     13  O   UNL     1     -65.829 -60.697 -68.301  0.00  0.00    +0.000 OA
ATOM     14  C   UNL     1     -68.093 -60.946 -68.665  0.00  0.00    +0.000 A 
ATOM     15  C   UNL     1     -67.864 -60.924 -67.252  0.00  0.00    +0.000 A 
ATOM     16  C   UNL     1     -66.807 -60.830 -69.312  0.00  0.00    +0.000 A 
ATOM     17  C   UNL     1     -66.452 -60.756 -67.044  0.00  0.00    +0.000 A 
ATOM     18  C   UNL     1     -65.622 -60.907 -65.816  0.00  0.00    +0.000 C 
BRANCH  14  19
ATOM     19  O   UNL     1     -69.167 -61.630 -69.161  0.00  0.00    +0.000 OA
ATOM     20  H   UNL     1     -69.321 -61.438 -70.113  0.00  0.00    +0.000 HD
ENDBRANCH  14  19
BRANCH  15  21
ATOM     21  O   UNL     1     -68.682 -61.610 -66.393  0.00  0.00    +0.000 OA
ATOM     22  H   UNL     1     -68.610 -61.246 -65.490  0.00  0.00    +0.000 HD
ENDBRANCH  15  21
ENDBRANCH   4  16
BRANCH  11  23
ATOM     23  O   UNL     1     -64.670 -61.304 -76.637  0.00  0.00    +0.000 OA
BRANCH  23  24
ATOM     24  C   UNL     1     -64.098 -60.359 -77.380  0.00  0.00    +0.000 C 
ATOM     25  C   UNL     1     -63.440 -59.272 -78.237  0.00  0.00    +0.000 C 
BRANCH  25  26
ATOM     26  C   UNL     1     -62.782 -58.187 -79.094  0.00  0.00    +0.000 C 
ATOM     27  C   UNL     1     -62.130 -57.098 -79.950  0.00  0.00    +0.000 C 
ATOM     28  C   UNL     1     -61.483 -55.998 -80.800  0.00  0.00    +0.000 C 
ENDBRANCH  25  26
ENDBRANCH  23  24
ENDBRANCH  11  23
TORSDOF 6
ENDMDL
MODEL 9
REMARK VINA RESULT:      -5.1      3.972      9.663
REMARK  Name = 60953_Capecitabine.pdbqt.pdb
REMARK  6 active torsions:
REMARK  status: ('A' for Active; 'I' for Inactive)
REMARK    1  A    between atoms: N_4  and  C_16
REMARK    2  A    between atoms: C_11  and  O_23
REMARK    3  A    between atoms: C_14  and  O_19
REMARK    4  A    between atoms: C_15  and  O_21
REMARK    5  A    between atoms: O_23  and  C_24
REMARK    6  A    between atoms: C_25  and  C_26
REMARK                            x       y       z     vdW  Elec       q    Type
REMARK                         _______ _______ _______ _____ _____    ______ ____
ROOT
ATOM      1  F   UNL     1     -70.992 -55.430 -34.277  0.00  0.00    +0.000 F 
ATOM      2  O   UNL     1     -69.810 -55.245 -29.055  0.00  0.00    +0.000 OA
ATOM      3  O   UNL     1     -67.572 -58.190 -31.915  0.00  0.00    +0.000 OA
ATOM      4  N   UNL     1     -71.218 -54.596 -30.785  0.00  0.00    +0.000 N 
ATOM      5  N   UNL     1     -69.506 -56.249 -31.091  0.00  0.00    +0.000 NA
ATOM      6  N   UNL     1     -69.222 -57.203 -33.226  0.00  0.00    +0.000 N 
ATOM      7  C   UNL     1     -71.507 -54.819 -32.083  0.00  0.00    +0.000 C 
ATOM      8  C   UNL     1     -70.160 -55.359 -30.228  0.00  0.00    +0.000 C 
ATOM      9  C   UNL     1     -71.017 -55.635 -32.949  0.00  0.00    +0.000 C 
ATOM     10  C   UNL     1     -69.868 -56.373 -32.333  0.00  0.00    +0.000 C 
ATOM     11  C   UNL     1     -68.138 -58.017 -32.984  0.00  0.00    +0.000 C 
ATOM     12  H   UNL     1     -69.541 -57.220 -34.184  0.00  0.00    +0.000 HD
ENDROOT
BRANCH   4  16
ATOM     13  O   UNL     1     -71.621 -52.310 -30.098  0.00  0.00    +0.000 OA
ATOM     14  C   UNL     1     -73.160 -53.827 -29.293  0.00  0.00    +0.000 A 
ATOM     15  C   UNL     1     -73.480 -52.537 -28.762  0.00  0.00    +0.000 A 
ATOM     16  C   UNL     1     -71.977 -53.677 -30.108  0.00  0.00    +0.000 A 
ATOM     17  C   UNL     1     -72.520 -51.603 -29.284  0.00  0.00    +0.000 A 
ATOM     18  C   UNL     1     -72.213 -50.199 -28.893  0.00  0.00    +0.000 C 
BRANCH  14  19
ATOM     19  O   UNL     1     -73.492 -54.947 -28.583  0.00  0.00    +0.000 OA
ATOM     20  H   UNL     1     -73.202 -55.771 -29.035  0.00  0.00    +0.000 HD
ENDBRANCH  14  19
BRANCH  15  21
ATOM     21  O   UNL     1     -74.078 -52.406 -27.537  0.00  0.00    +0.000 OA
ATOM     22  H   UNL     1     -74.602 -51.583 -27.500  0.00  0.00    +0.000 HD
ENDBRANCH  15  21
ENDBRANCH   4  16
BRANCH  11  23
ATOM     23  O   UNL     1     -67.791 -58.632 -34.154  0.00  0.00    +0.000 OA
BRANCH  23  24
ATOM     24  C   UNL     1     -67.778 -57.856 -35.235  0.00  0.00    +0.000 C 
ATOM     25  C   UNL     1     -67.765 -56.963 -36.480  0.00  0.00    +0.000 C 
BRANCH  25  26
ATOM     26  C   UNL     1     -67.751 -56.073 -37.726  0.00  0.00    +0.000 C 
ATOM     27  C   UNL     1     -67.734 -55.178 -38.969  0.00  0.00    +0.000 C 
ATOM     28  C   UNL     1     -67.706 -54.276 -40.208  0.00  0.00    +0.000 C 
ENDBRANCH  25  26
ENDBRANCH  23  24
ENDBRANCH  11  23
TORSDOF 6
ENDMDL
