MODEL 1
REMARK VINA RESULT:      -5.4      0.000      0.000
REMARK  Name = 6223_Gliotoxin.pdbqt.pdb
REMARK  3 active torsions:
REMARK  status: ('A' for Active; 'I' for Inactive)
REMARK    1  A    between atoms: C_10  and  C_21
REMARK    2  A    between atoms: C_14  and  O_19
REMARK    3  A    between atoms: C_21  and  O_22
REMARK                            x       y       z     vdW  Elec       q    Type
REMARK                         _______ _______ _______ _____ _____    ______ ____
ROOT
ATOM      1  S   UNL     1     -66.166 -44.891 -58.939  0.00  0.00    +0.000 S 
ATOM      2  S   UNL     1     -66.362 -44.398 -56.944  0.00  0.00    +0.000 S 
ATOM      3  O   UNL     1     -63.060 -45.622 -56.082  0.00  0.00    +0.000 OA
ATOM      4  O   UNL     1     -66.871 -48.343 -58.472  0.00  0.00    +0.000 OA
ATOM      5  N   UNL     1     -64.035 -46.351 -58.032  0.00  0.00    +0.000 N 
ATOM      6  N   UNL     1     -66.191 -47.132 -56.574  0.00  0.00    +0.000 N 
ATOM      7  C   UNL     1     -65.319 -46.500 -58.786  0.00  0.00    +0.000 C 
ATOM      8  C   UNL     1     -62.933 -46.630 -58.842  0.00  0.00    +0.000 A 
ATOM      9  C   UNL     1     -64.839 -47.006 -60.070  0.00  0.00    +0.000 C 
ATOM     10  C   UNL     1     -65.525 -45.860 -56.138  0.00  0.00    +0.000 C 
ATOM     11  C   UNL     1     -63.448 -47.156 -60.154  0.00  0.00    +0.000 A 
ATOM     12  C   UNL     1     -64.072 -45.932 -56.708  0.00  0.00    +0.000 C 
ATOM     13  C   UNL     1     -66.192 -47.450 -57.963  0.00  0.00    +0.000 C 
ATOM     14  C   UNL     1     -61.539 -46.139 -58.733  0.00  0.00    +0.000 A 
ATOM     15  C   UNL     1     -62.661 -46.899 -61.159  0.00  0.00    +0.000 A 
ATOM     16  C   UNL     1     -60.904 -46.067 -60.020  0.00  0.00    +0.000 A 
ATOM     17  C   UNL     1     -66.948 -47.876 -55.568  0.00  0.00    +0.000 C 
ATOM     18  C   UNL     1     -61.235 -46.326 -61.147  0.00  0.00    +0.000 A 
ENDROOT
BRANCH  14  19
ATOM     19  O   UNL     1     -61.103 -45.366 -57.696  0.00  0.00    +0.000 OA
ATOM     20  H   UNL     1     -60.776 -44.489 -57.981  0.00  0.00    +0.000 HD
ENDBRANCH  14  19
BRANCH  10  21
ATOM     21  C   UNL     1     -65.502 -45.640 -54.667  0.00  0.00    +0.000 C 
BRANCH  21  22
ATOM     22  O   UNL     1     -65.470 -45.458 -53.345  0.00  0.00    +0.000 OA
ATOM     23  H   UNL     1     -65.830 -44.586 -53.099  0.00  0.00    +0.000 HD
ENDBRANCH  21  22
ENDBRANCH  10  21
TORSDOF 3
ENDMDL
MODEL 2
REMARK VINA RESULT:      -5.2      2.992      5.686
REMARK  Name = 6223_Gliotoxin.pdbqt.pdb
REMARK  3 active torsions:
REMARK  status: ('A' for Active; 'I' for Inactive)
REMARK    1  A    between atoms: C_10  and  C_21
REMARK    2  A    between atoms: C_14  and  O_19
REMARK    3  A    between atoms: C_21  and  O_22
REMARK                            x       y       z     vdW  Elec       q    Type
REMARK                         _______ _______ _______ _____ _____    ______ ____
ROOT
ATOM      1  S   UNL     1     -63.530 -42.675 -58.823  0.00  0.00    +0.000 S 
ATOM      2  S   UNL     1     -61.932 -41.952 -59.913  0.00  0.00    +0.000 S 
ATOM      3  O   UNL     1     -61.106 -45.204 -61.288  0.00  0.00    +0.000 OA
ATOM      4  O   UNL     1     -61.535 -43.988 -56.191  0.00  0.00    +0.000 OA
ATOM      5  N   UNL     1     -62.397 -45.102 -59.389  0.00  0.00    +0.000 N 
ATOM      6  N   UNL     1     -60.456 -43.585 -58.242  0.00  0.00    +0.000 N 
ATOM      7  C   UNL     1     -62.824 -44.252 -58.234  0.00  0.00    +0.000 C 
ATOM      8  C   UNL     1     -63.156 -46.270 -59.469  0.00  0.00    +0.000 A 
ATOM      9  C   UNL     1     -63.822 -45.110 -57.601  0.00  0.00    +0.000 C 
ATOM     10  C   UNL     1     -60.706 -43.344 -59.701  0.00  0.00    +0.000 C 
ATOM     11  C   UNL     1     -64.029 -46.337 -58.245  0.00  0.00    +0.000 A 
ATOM     12  C   UNL     1     -61.389 -44.646 -60.229  0.00  0.00    +0.000 C 
ATOM     13  C   UNL     1     -61.560 -43.962 -57.423  0.00  0.00    +0.000 C 
ATOM     14  C   UNL     1     -63.466 -47.110 -60.650  0.00  0.00    +0.000 A 
ATOM     15  C   UNL     1     -65.148 -46.973 -58.442  0.00  0.00    +0.000 A 
ATOM     16  C   UNL     1     -64.736 -47.768 -60.510  0.00  0.00    +0.000 A 
ATOM     17  C   UNL     1     -59.132 -43.248 -57.719  0.00  0.00    +0.000 C 
ATOM     18  C   UNL     1     -65.584 -47.806 -59.658  0.00  0.00    +0.000 A 
ENDROOT
BRANCH  14  19
ATOM     19  O   UNL     1     -62.933 -46.879 -61.886  0.00  0.00    +0.000 OA
ATOM     20  H   UNL     1     -63.281 -46.068 -62.309  0.00  0.00    +0.000 HD
ENDBRANCH  14  19
BRANCH  10  21
ATOM     21  C   UNL     1     -59.490 -43.029 -60.499  0.00  0.00    +0.000 C 
BRANCH  21  22
ATOM     22  O   UNL     1     -58.404 -42.728 -61.216  0.00  0.00    +0.000 OA
ATOM     23  H   UNL     1     -57.668 -42.445 -60.641  0.00  0.00    +0.000 HD
ENDBRANCH  21  22
ENDBRANCH  10  21
TORSDOF 3
ENDMDL
MODEL 3
REMARK VINA RESULT:      -4.7     22.980     26.032
REMARK  Name = 6223_Gliotoxin.pdbqt.pdb
REMARK  3 active torsions:
REMARK  status: ('A' for Active; 'I' for Inactive)
REMARK    1  A    between atoms: C_10  and  C_21
REMARK    2  A    between atoms: C_14  and  O_19
REMARK    3  A    between atoms: C_21  and  O_22
REMARK                            x       y       z     vdW  Elec       q    Type
REMARK                         _______ _______ _______ _____ _____    ______ ____
ROOT
ATOM      1  S   UNL     1     -71.161 -59.012 -36.652  0.00  0.00    +0.000 S 
ATOM      2  S   UNL     1     -69.974 -60.431 -37.567  0.00  0.00    +0.000 S 
ATOM      3  O   UNL     1     -67.165 -59.842 -35.352  0.00  0.00    +0.000 OA
ATOM      4  O   UNL     1     -69.639 -56.244 -38.280  0.00  0.00    +0.000 OA
ATOM      5  N   UNL     1     -68.790 -58.226 -35.531  0.00  0.00    +0.000 N 
ATOM      6  N   UNL     1     -68.410 -58.248 -38.221  0.00  0.00    +0.000 N 
ATOM      7  C   UNL     1     -69.922 -57.704 -36.358  0.00  0.00    +0.000 C 
ATOM      8  C   UNL     1     -68.735 -57.595 -34.288  0.00  0.00    +0.000 A 
ATOM      9  C   UNL     1     -70.429 -56.632 -35.505  0.00  0.00    +0.000 C 
ATOM     10  C   UNL     1     -68.314 -59.576 -37.530  0.00  0.00    +0.000 C 
ATOM     11  C   UNL     1     -69.743 -56.477 -34.293  0.00  0.00    +0.000 A 
ATOM     12  C   UNL     1     -67.997 -59.249 -36.036  0.00  0.00    +0.000 C 
ATOM     13  C   UNL     1     -69.315 -57.280 -37.697  0.00  0.00    +0.000 C 
ATOM     14  C   UNL     1     -68.183 -58.092 -33.005  0.00  0.00    +0.000 A 
ATOM     15  C   UNL     1     -70.225 -56.209 -33.114  0.00  0.00    +0.000 A 
ATOM     16  C   UNL     1     -68.871 -57.520 -31.880  0.00  0.00    +0.000 A 
ATOM     17  C   UNL     1     -67.698 -58.095 -39.490  0.00  0.00    +0.000 C 
ATOM     18  C   UNL     1     -69.767 -56.730 -31.742  0.00  0.00    +0.000 A 
ENDROOT
BRANCH  14  19
ATOM     19  O   UNL     1     -67.529 -59.284 -32.890  0.00  0.00    +0.000 OA
ATOM     20  H   UNL     1     -67.831 -59.952 -33.539  0.00  0.00    +0.000 HD
ENDBRANCH  14  19
BRANCH  10  21
ATOM     21  C   UNL     1     -67.293 -60.501 -38.093  0.00  0.00    +0.000 C 
BRANCH  21  22
ATOM     22  O   UNL     1     -66.364 -61.323 -38.586  0.00  0.00    +0.000 OA
ATOM     23  H   UNL     1     -66.402 -62.198 -38.155  0.00  0.00    +0.000 HD
ENDBRANCH  21  22
ENDBRANCH  10  21
TORSDOF 3
ENDMDL
MODEL 4
REMARK VINA RESULT:      -4.6     18.930     20.739
REMARK  Name = 6223_Gliotoxin.pdbqt.pdb
REMARK  3 active torsions:
REMARK  status: ('A' for Active; 'I' for Inactive)
REMARK    1  A    between atoms: C_10  and  C_21
REMARK    2  A    between atoms: C_14  and  O_19
REMARK    3  A    between atoms: C_21  and  O_22
REMARK                            x       y       z     vdW  Elec       q    Type
REMARK                         _______ _______ _______ _____ _____    ______ ____
ROOT
ATOM      1  S   UNL     1     -67.232 -63.327 -72.094  0.00  0.00    +0.000 S 
ATOM      2  S   UNL     1     -68.518 -62.696 -70.608  0.00  0.00    +0.000 S 
ATOM      3  O   UNL     1     -68.633 -59.288 -71.839  0.00  0.00    +0.000 OA
ATOM      4  O   UNL     1     -64.315 -62.000 -70.558  0.00  0.00    +0.000 OA
ATOM      5  N   UNL     1     -66.890 -60.640 -72.487  0.00  0.00    +0.000 N 
ATOM      6  N   UNL     1     -66.379 -61.113 -69.861  0.00  0.00    +0.000 N 
ATOM      7  C   UNL     1     -66.118 -61.884 -72.183  0.00  0.00    +0.000 C 
ATOM      8  C   UNL     1     -66.540 -60.114 -73.732  0.00  0.00    +0.000 A 
ATOM      9  C   UNL     1     -65.211 -61.945 -73.327  0.00  0.00    +0.000 C 
ATOM     10  C   UNL     1     -67.826 -61.001 -70.242  0.00  0.00    +0.000 C 
ATOM     11  C   UNL     1     -65.369 -60.904 -74.252  0.00  0.00    +0.000 A 
ATOM     12  C   UNL     1     -67.845 -60.195 -71.581  0.00  0.00    +0.000 C 
ATOM     13  C   UNL     1     -65.473 -61.664 -70.813  0.00  0.00    +0.000 C 
ATOM     14  C   UNL     1     -67.337 -59.272 -74.654  0.00  0.00    +0.000 A 
ATOM     15  C   UNL     1     -65.316 -60.957 -75.552  0.00  0.00    +0.000 A 
ATOM     16  C   UNL     1     -66.961 -59.491 -76.025  0.00  0.00    +0.000 A 
ATOM     17  C   UNL     1     -66.021 -60.812 -68.475  0.00  0.00    +0.000 C 
ATOM     18  C   UNL     1     -66.147 -60.178 -76.584  0.00  0.00    +0.000 A 
ENDROOT
BRANCH  14  19
ATOM     19  O   UNL     1     -68.575 -58.792 -74.339  0.00  0.00    +0.000 OA
ATOM     20  H   UNL     1     -69.240 -59.499 -74.209  0.00  0.00    +0.000 HD
ENDBRANCH  14  19
BRANCH  10  21
ATOM     21  C   UNL     1     -68.690 -60.346 -69.224  0.00  0.00    +0.000 C 
BRANCH  21  22
ATOM     22  O   UNL     1     -69.479 -59.755 -68.323  0.00  0.00    +0.000 OA
ATOM     23  H   UNL     1     -69.794 -58.889 -68.643  0.00  0.00    +0.000 HD
ENDBRANCH  21  22
ENDBRANCH  10  21
TORSDOF 3
ENDMDL
MODEL 5
REMARK VINA RESULT:      -4.6     39.324     41.911
REMARK  Name = 6223_Gliotoxin.pdbqt.pdb
REMARK  3 active torsions:
REMARK  status: ('A' for Active; 'I' for Inactive)
REMARK    1  A    between atoms: C_10  and  C_21
REMARK    2  A    between atoms: C_14  and  O_19
REMARK    3  A    between atoms: C_21  and  O_22
REMARK                            x       y       z     vdW  Elec       q    Type
REMARK                         _______ _______ _______ _____ _____    ______ ____
ROOT
ATOM      1  S   UNL     1     -43.765 -58.414 -92.147  0.00  0.00    +0.000 S 
ATOM      2  S   UNL     1     -45.161 -58.031 -90.676  0.00  0.00    +0.000 S 
ATOM      3  O   UNL     1     -46.096 -61.517 -90.335  0.00  0.00    +0.000 OA
ATOM      4  O   UNL     1     -46.151 -58.690 -94.767  0.00  0.00    +0.000 OA
ATOM      5  N   UNL     1     -45.027 -60.841 -92.254  0.00  0.00    +0.000 N 
ATOM      6  N   UNL     1     -46.951 -58.948 -92.571  0.00  0.00    +0.000 N 
ATOM      7  C   UNL     1     -44.664 -59.673 -93.116  0.00  0.00    +0.000 C 
ATOM      8  C   UNL     1     -44.365 -62.000 -92.662  0.00  0.00    +0.000 A 
ATOM      9  C   UNL     1     -43.822 -60.313 -94.124  0.00  0.00    +0.000 C 
ATOM     10  C   UNL     1     -46.517 -59.219 -91.160  0.00  0.00    +0.000 C 
ATOM     11  C   UNL     1     -43.646 -61.692 -93.948  0.00  0.00    +0.000 A 
ATOM     12  C   UNL     1     -45.890 -60.650 -91.182  0.00  0.00    +0.000 C 
ATOM     13  C   UNL     1     -45.984 -59.077 -93.609  0.00  0.00    +0.000 C 
ATOM     14  C   UNL     1     -43.995 -63.198 -91.872  0.00  0.00    +0.000 A 
ATOM     15  C   UNL     1     -42.570 -62.404 -94.123  0.00  0.00    +0.000 A 
ATOM     16  C   UNL     1     -42.809 -63.824 -92.390  0.00  0.00    +0.000 A 
ATOM     17  C   UNL     1     -48.292 -58.401 -92.770  0.00  0.00    +0.000 C 
ATOM     18  C   UNL     1     -42.071 -63.612 -93.315  0.00  0.00    +0.000 A 
ENDROOT
BRANCH  14  19
ATOM     19  O   UNL     1     -44.361 -63.370 -90.568  0.00  0.00    +0.000 OA
ATOM     20  H   UNL     1     -45.260 -63.035 -90.374  0.00  0.00    +0.000 HD
ENDBRANCH  14  19
BRANCH  10  21
ATOM     21  C   UNL     1     -47.602 -59.137 -90.146  0.00  0.00    +0.000 C 
BRANCH  21  22
ATOM     22  O   UNL     1     -48.588 -59.075 -89.247  0.00  0.00    +0.000 OA
ATOM     23  H   UNL     1     -48.495 -58.291 -88.674  0.00  0.00    +0.000 HD
ENDBRANCH  21  22
ENDBRANCH  10  21
TORSDOF 3
ENDMDL
MODEL 6
REMARK VINA RESULT:      -4.6     17.585     19.305
REMARK  Name = 6223_Gliotoxin.pdbqt.pdb
REMARK  3 active torsions:
REMARK  status: ('A' for Active; 'I' for Inactive)
REMARK    1  A    between atoms: C_10  and  C_21
REMARK    2  A    between atoms: C_14  and  O_19
REMARK    3  A    between atoms: C_21  and  O_22
REMARK                            x       y       z     vdW  Elec       q    Type
REMARK                         _______ _______ _______ _____ _____    ______ ____
ROOT
ATOM      1  S   UNL     1     -68.567 -62.952 -69.054  0.00  0.00    +0.000 S 
ATOM      2  S   UNL     1     -70.424 -62.054 -69.130  0.00  0.00    +0.000 S 
ATOM      3  O   UNL     1     -69.324 -59.445 -71.394  0.00  0.00    +0.000 OA
ATOM      4  O   UNL     1     -67.201 -60.633 -66.734  0.00  0.00    +0.000 OA
ATOM      5  N   UNL     1     -67.746 -60.598 -70.184  0.00  0.00    +0.000 N 
ATOM      6  N   UNL     1     -69.107 -59.944 -67.925  0.00  0.00    +0.000 N 
ATOM      7  C   UNL     1     -67.502 -61.471 -68.994  0.00  0.00    +0.000 C 
ATOM      8  C   UNL     1     -66.618 -60.526 -71.003  0.00  0.00    +0.000 A 
ATOM      9  C   UNL     1     -66.086 -61.791 -69.160  0.00  0.00    +0.000 C 
ATOM     10  C   UNL     1     -69.942 -60.251 -69.134  0.00  0.00    +0.000 C 
ATOM     11  C   UNL     1     -65.489 -61.224 -70.294  0.00  0.00    +0.000 A 
ATOM     12  C   UNL     1     -69.000 -60.028 -70.361  0.00  0.00    +0.000 C 
ATOM     13  C   UNL     1     -67.873 -60.637 -67.767  0.00  0.00    +0.000 C 
ATOM     14  C   UNL     1     -66.528 -60.255 -72.457  0.00  0.00    +0.000 A 
ATOM     15  C   UNL     1     -64.617 -61.752 -71.104  0.00  0.00    +0.000 A 
ATOM     16  C   UNL     1     -65.385 -60.901 -73.043  0.00  0.00    +0.000 A 
ATOM     17  C   UNL     1     -69.696 -59.083 -66.900  0.00  0.00    +0.000 C 
ATOM     18  C   UNL     1     -64.489 -61.586 -72.627  0.00  0.00    +0.000 A 
ENDROOT
BRANCH  14  19
ATOM     19  O   UNL     1     -67.612 -59.928 -73.220  0.00  0.00    +0.000 OA
ATOM     20  H   UNL     1     -67.370 -59.575 -74.100  0.00  0.00    +0.000 HD
ENDBRANCH  14  19
BRANCH  10  21
ATOM     21  C   UNL     1     -71.176 -59.431 -69.264  0.00  0.00    +0.000 C 
BRANCH  21  22
ATOM     22  O   UNL     1     -72.277 -58.687 -69.397  0.00  0.00    +0.000 OA
ATOM     23  H   UNL     1     -72.059 -57.737 -69.443  0.00  0.00    +0.000 HD
ENDBRANCH  21  22
ENDBRANCH  10  21
TORSDOF 3
ENDMDL
MODEL 7
REMARK VINA RESULT:      -4.5      2.079      3.540
REMARK  Name = 6223_Gliotoxin.pdbqt.pdb
REMARK  3 active torsions:
REMARK  status: ('A' for Active; 'I' for Inactive)
REMARK    1  A    between atoms: C_10  and  C_21
REMARK    2  A    between atoms: C_14  and  O_19
REMARK    3  A    between atoms: C_21  and  O_22
REMARK                            x       y       z     vdW  Elec       q    Type
REMARK                         _______ _______ _______ _____ _____    ______ ____
ROOT
ATOM      1  S   UNL     1     -64.351 -47.452 -55.583  0.00  0.00    +0.000 S 
ATOM      2  S   UNL     1     -66.338 -47.996 -55.449  0.00  0.00    +0.000 S 
ATOM      3  O   UNL     1     -66.928 -47.575 -59.001  0.00  0.00    +0.000 OA
ATOM      4  O   UNL     1     -64.999 -43.960 -55.708  0.00  0.00    +0.000 OA
ATOM      5  N   UNL     1     -65.104 -46.546 -58.054  0.00  0.00    +0.000 N 
ATOM      6  N   UNL     1     -66.782 -45.391 -56.257  0.00  0.00    +0.000 N 
ATOM      7  C   UNL     1     -64.479 -46.079 -56.778  0.00  0.00    +0.000 C 
ATOM      8  C   UNL     1     -64.205 -46.473 -59.118  0.00  0.00    +0.000 A 
ATOM      9  C   UNL     1     -63.173 -45.622 -57.249  0.00  0.00    +0.000 C 
ATOM     10  C   UNL     1     -67.111 -46.799 -56.656  0.00  0.00    +0.000 C 
ATOM     11  C   UNL     1     -62.964 -45.776 -58.627  0.00  0.00    +0.000 A 
ATOM     12  C   UNL     1     -66.411 -47.017 -58.035  0.00  0.00    +0.000 C 
ATOM     13  C   UNL     1     -65.411 -45.006 -56.211  0.00  0.00    +0.000 C 
ATOM     14  C   UNL     1     -64.166 -47.262 -60.372  0.00  0.00    +0.000 A 
ATOM     15  C   UNL     1     -61.882 -46.146 -59.249  0.00  0.00    +0.000 A 
ATOM     16  C   UNL     1     -62.823 -47.402 -60.865  0.00  0.00    +0.000 A 
ATOM     17  C   UNL     1     -67.880 -44.554 -55.772  0.00  0.00    +0.000 C 
ATOM     18  C   UNL     1     -61.741 -47.017 -60.507  0.00  0.00    +0.000 A 
ENDROOT
BRANCH  14  19
ATOM     19  O   UNL     1     -65.131 -48.167 -60.710  0.00  0.00    +0.000 OA
ATOM     20  H   UNL     1     -65.725 -48.391 -59.966  0.00  0.00    +0.000 HD
ENDBRANCH  14  19
BRANCH  10  21
ATOM     21  C   UNL     1     -68.565 -47.097 -56.753  0.00  0.00    +0.000 C 
BRANCH  21  22
ATOM     22  O   UNL     1     -69.874 -47.347 -56.837  0.00  0.00    +0.000 OA
ATOM     23  H   UNL     1     -70.068 -48.285 -56.654  0.00  0.00    +0.000 HD
ENDBRANCH  21  22
ENDBRANCH  10  21
TORSDOF 3
ENDMDL
MODEL 8
REMARK VINA RESULT:      -4.5      2.835      3.745
REMARK  Name = 6223_Gliotoxin.pdbqt.pdb
REMARK  3 active torsions:
REMARK  status: ('A' for Active; 'I' for Inactive)
REMARK    1  A    between atoms: C_10  and  C_21
REMARK    2  A    between atoms: C_14  and  O_19
REMARK    3  A    between atoms: C_21  and  O_22
REMARK                            x       y       z     vdW  Elec       q    Type
REMARK                         _______ _______ _______ _____ _____    ______ ____
ROOT
ATOM      1  S   UNL     1     -67.679 -47.132 -54.531  0.00  0.00    +0.000 S 
ATOM      2  S   UNL     1     -66.399 -46.647 -52.986  0.00  0.00    +0.000 S 
ATOM      3  O   UNL     1     -63.597 -46.019 -55.199  0.00  0.00    +0.000 OA
ATOM      4  O   UNL     1     -66.435 -50.437 -54.932  0.00  0.00    +0.000 OA
ATOM      5  N   UNL     1     -65.356 -47.281 -55.972  0.00  0.00    +0.000 N 
ATOM      6  N   UNL     1     -65.041 -48.906 -53.817  0.00  0.00    +0.000 N 
ATOM      7  C   UNL     1     -66.547 -48.100 -55.587  0.00  0.00    +0.000 C 
ATOM      8  C   UNL     1     -65.324 -47.045 -57.347  0.00  0.00    +0.000 A 
ATOM      9  C   UNL     1     -67.122 -48.402 -56.896  0.00  0.00    +0.000 C 
ATOM     10  C   UNL     1     -64.817 -47.442 -53.578  0.00  0.00    +0.000 C 
ATOM     11  C   UNL     1     -66.422 -47.856 -57.980  0.00  0.00    +0.000 A 
ATOM     12  C   UNL     1     -64.492 -46.834 -54.980  0.00  0.00    +0.000 C 
ATOM     13  C   UNL     1     -66.010 -49.289 -54.788  0.00  0.00    +0.000 C 
ATOM     14  C   UNL     1     -64.701 -45.926 -58.094  0.00  0.00    +0.000 A 
ATOM     15  C   UNL     1     -66.897 -47.324 -59.069  0.00  0.00    +0.000 A 
ATOM     16  C   UNL     1     -65.407 -45.651 -59.315  0.00  0.00    +0.000 A 
ATOM     17  C   UNL     1     -64.375 -49.846 -52.915  0.00  0.00    +0.000 C 
ATOM     18  C   UNL     1     -66.363 -46.125 -59.870  0.00  0.00    +0.000 A 
ENDROOT
BRANCH  14  19
ATOM     19  O   UNL     1     -63.947 -44.961 -57.492  0.00  0.00    +0.000 OA
ATOM     20  H   UNL     1     -63.000 -45.005 -57.735  0.00  0.00    +0.000 HD
ENDBRANCH  14  19
BRANCH  10  21
ATOM     21  C   UNL     1     -63.736 -47.126 -52.607  0.00  0.00    +0.000 C 
BRANCH  21  22
ATOM     22  O   UNL     1     -62.778 -46.837 -51.721  0.00  0.00    +0.000 OA
ATOM     23  H   UNL     1     -61.907 -46.765 -52.154  0.00  0.00    +0.000 HD
ENDBRANCH  21  22
ENDBRANCH  10  21
TORSDOF 3
ENDMDL
MODEL 9
REMARK VINA RESULT:      -4.3     18.264     20.031
REMARK  Name = 6223_Gliotoxin.pdbqt.pdb
REMARK  3 active torsions:
REMARK  status: ('A' for Active; 'I' for Inactive)
REMARK    1  A    between atoms: C_10  and  C_21
REMARK    2  A    between atoms: C_14  and  O_19
REMARK    3  A    between atoms: C_21  and  O_22
REMARK                            x       y       z     vdW  Elec       q    Type
REMARK                         _______ _______ _______ _____ _____    ______ ____
ROOT
ATOM      1  S   UNL     1     -55.078 -60.243 -65.403  0.00  0.00    +0.000 S 
ATOM      2  S   UNL     1     -54.377 -62.177 -65.566  0.00  0.00    +0.000 S 
ATOM      3  O   UNL     1     -53.449 -61.791 -69.049  0.00  0.00    +0.000 OA
ATOM      4  O   UNL     1     -58.197 -60.915 -66.968  0.00  0.00    +0.000 OA
ATOM      5  N   UNL     1     -54.960 -60.318 -68.137  0.00  0.00    +0.000 N 
ATOM      6  N   UNL     1     -56.459 -62.448 -67.364  0.00  0.00    +0.000 N 
ATOM      7  C   UNL     1     -55.918 -60.073 -67.015  0.00  0.00    +0.000 C 
ATOM      8  C   UNL     1     -54.764 -59.165 -68.899  0.00  0.00    +0.000 A 
ATOM      9  C   UNL     1     -56.335 -58.701 -67.288  0.00  0.00    +0.000 C 
ATOM     10  C   UNL     1     -54.971 -62.622 -67.280  0.00  0.00    +0.000 C 
ATOM     11  C   UNL     1     -55.734 -58.122 -68.415  0.00  0.00    +0.000 A 
ATOM     12  C   UNL     1     -54.369 -61.569 -68.264  0.00  0.00    +0.000 C 
ATOM     13  C   UNL     1     -56.999 -61.150 -67.132  0.00  0.00    +0.000 C 
ATOM     14  C   UNL     1     -53.596 -58.769 -69.721  0.00  0.00    +0.000 A 
ATOM     15  C   UNL     1     -55.305 -56.903 -68.572  0.00  0.00    +0.000 A 
ATOM     16  C   UNL     1     -53.456 -57.340 -69.783  0.00  0.00    +0.000 A 
ATOM     17  C   UNL     1     -57.272 -63.655 -67.508  0.00  0.00    +0.000 C 
ATOM     18  C   UNL     1     -54.072 -56.405 -69.342  0.00  0.00    +0.000 A 
ENDROOT
BRANCH  14  19
ATOM     19  O   UNL     1     -52.520 -59.584 -69.923  0.00  0.00    +0.000 OA
ATOM     20  H   UNL     1     -52.764 -60.526 -70.021  0.00  0.00    +0.000 HD
ENDBRANCH  14  19
BRANCH  10  21
ATOM     21  C   UNL     1     -54.482 -63.988 -67.610  0.00  0.00    +0.000 C 
BRANCH  21  22
ATOM     22  O   UNL     1     -54.055 -65.214 -67.922  0.00  0.00    +0.000 OA
ATOM     23  H   UNL     1     -54.797 -65.846 -67.970  0.00  0.00    +0.000 HD
ENDBRANCH  21  22
ENDBRANCH  10  21
TORSDOF 3
ENDMDL
