MODEL 1
REMARK VINA RESULT:      -5.5      0.000      0.000
REMARK  Name = 6256_Trifluridine.pdbqt.pdb
REMARK  5 active torsions:
REMARK  status: ('A' for Active; 'I' for Inactive)
REMARK    1  A    between atoms: N_3  and  C1*_11
REMARK    2  A    between atoms: C_7  and  C_23
REMARK    3  A    between atoms: C3*_12  and  O3*_15
REMARK    4  A    between atoms: C4*_14  and  C5*_17
REMARK    5  A    between atoms: C5*_17  and  O5*_18
REMARK                            x       y       z     vdW  Elec       q    Type
REMARK                         _______ _______ _______ _____ _____    ______ ____
ROOT
ATOM      1  O   UNL     1     -62.128 -59.086 -58.626  0.00  0.00    +0.000 OA
ATOM      2  O   UNL     1     -58.687 -57.258 -61.052  0.00  0.00    +0.000 OA
ATOM      3  N   UNL     1     -61.947 -56.726 -58.697  0.00  0.00    +0.000 N 
ATOM      4  N   UNL     1     -60.431 -58.112 -59.829  0.00  0.00    +0.000 N 
ATOM      5  C   UNL     1     -61.182 -55.748 -59.222  0.00  0.00    +0.000 A 
ATOM      6  C   UNL     1     -61.578 -58.056 -58.998  0.00  0.00    +0.000 A 
ATOM      7  C   UNL     1     -60.133 -55.700 -59.975  0.00  0.00    +0.000 A 
ATOM      8  C   UNL     1     -59.667 -57.060 -60.347  0.00  0.00    +0.000 A 
ATOM      9  H   UNL     1     -60.125 -59.043 -60.072  0.00  0.00    +0.000 HD
ENDROOT
BRANCH   3  11
ATOM     10  O4* UNL     1     -64.315 -56.322 -58.417  0.00  0.00    +0.000 OA
ATOM     11  C1* UNL     1     -63.012 -56.388 -57.913  0.00  0.00    +0.000 A 
ATOM     12  C3* UNL     1     -64.340 -55.748 -56.174  0.00  0.00    +0.000 A 
ATOM     13  C2* UNL     1     -63.015 -56.030 -56.550  0.00  0.00    +0.000 A 
ATOM     14  C4* UNL     1     -65.142 -55.928 -57.358  0.00  0.00    +0.000 A 
BRANCH  12  15
ATOM     15  O3* UNL     1     -64.689 -54.834 -55.220  0.00  0.00    +0.000 OA
ATOM     16  H3* UNL     1     -63.937 -54.637 -54.634  0.00  0.00    +0.000 HD
ENDBRANCH  12  15
BRANCH  14  17
ATOM     17  C5* UNL     1     -66.490 -55.563 -57.545  0.00  0.00    +0.000 C 
BRANCH  17  18
ATOM     18  O5* UNL     1     -67.761 -55.215 -57.722  0.00  0.00    +0.000 OA
ATOM     19  H5* UNL     1     -68.259 -55.330 -56.895  0.00  0.00    +0.000 HD
ENDBRANCH  17  18
ENDBRANCH  14  17
ENDBRANCH   3  11
BRANCH   7  23
ATOM     20  F   UNL     1     -59.885 -54.027 -61.608  0.00  0.00    +0.000 F 
ATOM     21  F   UNL     1     -59.370 -53.524 -59.560  0.00  0.00    +0.000 F 
ATOM     22  F   UNL     1     -58.069 -54.838 -60.698  0.00  0.00    +0.000 F 
ATOM     23  C   UNL     1     -59.372 -54.543 -60.464  0.00  0.00    +0.000 C 
ENDBRANCH   7  23
TORSDOF 5
ENDMDL
MODEL 2
REMARK VINA RESULT:      -5.2     25.410     27.917
REMARK  Name = 6256_Trifluridine.pdbqt.pdb
REMARK  5 active torsions:
REMARK  status: ('A' for Active; 'I' for Inactive)
REMARK    1  A    between atoms: N_3  and  C1*_11
REMARK    2  A    between atoms: C_7  and  C_23
REMARK    3  A    between atoms: C3*_12  and  O3*_15
REMARK    4  A    between atoms: C4*_14  and  C5*_17
REMARK    5  A    between atoms: C5*_17  and  O5*_18
REMARK                            x       y       z     vdW  Elec       q    Type
REMARK                         _______ _______ _______ _____ _____    ______ ____
ROOT
ATOM      1  O   UNL     1     -70.584 -59.784 -32.430  0.00  0.00    +0.000 OA
ATOM      2  O   UNL     1     -71.938 -56.924 -29.105  0.00  0.00    +0.000 OA
ATOM      3  N   UNL     1     -69.614 -57.625 -32.355  0.00  0.00    +0.000 N 
ATOM      4  N   UNL     1     -71.216 -58.311 -30.785  0.00  0.00    +0.000 N 
ATOM      5  C   UNL     1     -69.652 -56.482 -31.641  0.00  0.00    +0.000 A 
ATOM      6  C   UNL     1     -70.461 -58.673 -31.928  0.00  0.00    +0.000 A 
ATOM      7  C   UNL     1     -70.299 -56.062 -30.604  0.00  0.00    +0.000 A 
ATOM      8  C   UNL     1     -71.220 -57.102 -30.079  0.00  0.00    +0.000 A 
ATOM      9  H   UNL     1     -71.839 -59.027 -30.440  0.00  0.00    +0.000 HD
ENDROOT
BRANCH   3  11
ATOM     10  O4* UNL     1     -68.999 -56.959 -34.597  0.00  0.00    +0.000 OA
ATOM     11  C1* UNL     1     -68.783 -57.706 -33.435  0.00  0.00    +0.000 A 
ATOM     12  C3* UNL     1     -67.117 -58.278 -34.882  0.00  0.00    +0.000 A 
ATOM     13  C2* UNL     1     -67.645 -58.521 -33.601  0.00  0.00    +0.000 A 
ATOM     14  C4* UNL     1     -67.981 -57.302 -35.497  0.00  0.00    +0.000 A 
BRANCH  12  15
ATOM     15  O3* UNL     1     -66.468 -59.216 -35.634  0.00  0.00    +0.000 OA
ATOM     16  H3* UNL     1     -66.790 -60.111 -35.429  0.00  0.00    +0.000 HD
ENDBRANCH  12  15
BRANCH  14  17
ATOM     17  C5* UNL     1     -67.995 -56.896 -36.845  0.00  0.00    +0.000 C 
BRANCH  17  18
ATOM     18  O5* UNL     1     -68.010 -56.509 -38.117  0.00  0.00    +0.000 OA
ATOM     19  H5* UNL     1     -68.898 -56.199 -38.364  0.00  0.00    +0.000 HD
ENDBRANCH  17  18
ENDBRANCH  14  17
ENDBRANCH   3  11
BRANCH   7  23
ATOM     20  F   UNL     1     -69.403 -53.890 -30.523  0.00  0.00    +0.000 F 
ATOM     21  F   UNL     1     -71.480 -54.149 -29.943  0.00  0.00    +0.000 F 
ATOM     22  F   UNL     1     -69.906 -54.856 -28.626  0.00  0.00    +0.000 F 
ATOM     23  C   UNL     1     -70.261 -54.757 -29.930  0.00  0.00    +0.000 C 
ENDBRANCH   7  23
TORSDOF 5
ENDMDL
MODEL 3
REMARK VINA RESULT:      -5.2      7.626     10.066
REMARK  Name = 6256_Trifluridine.pdbqt.pdb
REMARK  5 active torsions:
REMARK  status: ('A' for Active; 'I' for Inactive)
REMARK    1  A    between atoms: N_3  and  C1*_11
REMARK    2  A    between atoms: C_7  and  C_23
REMARK    3  A    between atoms: C3*_12  and  O3*_15
REMARK    4  A    between atoms: C4*_14  and  C5*_17
REMARK    5  A    between atoms: C5*_17  and  O5*_18
REMARK                            x       y       z     vdW  Elec       q    Type
REMARK                         _______ _______ _______ _____ _____    ______ ____
ROOT
ATOM      1  O   UNL     1     -55.255 -61.536 -65.529  0.00  0.00    +0.000 OA
ATOM      2  O   UNL     1     -53.293 -58.915 -68.745  0.00  0.00    +0.000 OA
ATOM      3  N   UNL     1     -56.522 -59.754 -66.439  0.00  0.00    +0.000 N 
ATOM      4  N   UNL     1     -54.330 -60.194 -67.146  0.00  0.00    +0.000 N 
ATOM      5  C   UNL     1     -56.432 -58.757 -67.340  0.00  0.00    +0.000 A 
ATOM      6  C   UNL     1     -55.387 -60.582 -66.287  0.00  0.00    +0.000 A 
ATOM      7  C   UNL     1     -55.525 -58.327 -68.155  0.00  0.00    +0.000 A 
ATOM      8  C   UNL     1     -54.286 -59.141 -68.068  0.00  0.00    +0.000 A 
ATOM      9  H   UNL     1     -53.493 -60.755 -67.075  0.00  0.00    +0.000 HD
ENDROOT
BRANCH   3  11
ATOM     10  O4* UNL     1     -57.851 -59.340 -64.461  0.00  0.00    +0.000 OA
ATOM     11  C1* UNL     1     -57.678 -59.905 -65.728  0.00  0.00    +0.000 A 
ATOM     12  C3* UNL     1     -59.761 -60.517 -65.034  0.00  0.00    +0.000 A 
ATOM     13  C2* UNL     1     -58.832 -60.633 -66.082  0.00  0.00    +0.000 A 
ATOM     14  C4* UNL     1     -59.129 -59.709 -64.021  0.00  0.00    +0.000 A 
BRANCH  12  15
ATOM     15  O3* UNL     1     -60.664 -61.486 -64.698  0.00  0.00    +0.000 OA
ATOM     16  H3* UNL     1     -61.377 -61.542 -65.358  0.00  0.00    +0.000 HD
ENDBRANCH  12  15
BRANCH  14  17
ATOM     17  C5* UNL     1     -59.568 -59.488 -62.701  0.00  0.00    +0.000 C 
BRANCH  17  18
ATOM     18  O5* UNL     1     -59.986 -59.277 -61.456  0.00  0.00    +0.000 OA
ATOM     19  H5* UNL     1     -59.701 -58.399 -61.150  0.00  0.00    +0.000 HD
ENDBRANCH  17  18
ENDBRANCH  14  17
ENDBRANCH   3  11
BRANCH   7  23
ATOM     20  F   UNL     1     -55.493 -57.579 -70.384  0.00  0.00    +0.000 F 
ATOM     21  F   UNL     1     -56.696 -56.464 -68.960  0.00  0.00    +0.000 F 
ATOM     22  F   UNL     1     -54.531 -56.322 -68.874  0.00  0.00    +0.000 F 
ATOM     23  C   UNL     1     -55.551 -57.191 -69.085  0.00  0.00    +0.000 C 
ENDBRANCH   7  23
TORSDOF 5
ENDMDL
MODEL 4
REMARK VINA RESULT:      -5.0     41.570     43.781
REMARK  Name = 6256_Trifluridine.pdbqt.pdb
REMARK  5 active torsions:
REMARK  status: ('A' for Active; 'I' for Inactive)
REMARK    1  A    between atoms: N_3  and  C1*_11
REMARK    2  A    between atoms: C_7  and  C_23
REMARK    3  A    between atoms: C3*_12  and  O3*_15
REMARK    4  A    between atoms: C4*_14  and  C5*_17
REMARK    5  A    between atoms: C5*_17  and  O5*_18
REMARK                            x       y       z     vdW  Elec       q    Type
REMARK                         _______ _______ _______ _____ _____    ______ ____
ROOT
ATOM      1  O   UNL     1     -63.690 -54.951 -13.188  0.00  0.00    +0.000 OA
ATOM      2  O   UNL     1     -64.442 -59.308 -11.957  0.00  0.00    +0.000 OA
ATOM      3  N   UNL     1     -64.119 -56.533 -14.898  0.00  0.00    +0.000 N 
ATOM      4  N   UNL     1     -64.081 -57.145 -12.635  0.00  0.00    +0.000 N 
ATOM      5  C   UNL     1     -64.384 -57.843 -15.072  0.00  0.00    +0.000 A 
ATOM      6  C   UNL     1     -63.940 -56.089 -13.568  0.00  0.00    +0.000 A 
ATOM      7  C   UNL     1     -64.526 -58.868 -14.297  0.00  0.00    +0.000 A 
ATOM      8  C   UNL     1     -64.355 -58.498 -12.869  0.00  0.00    +0.000 A 
ATOM      9  H   UNL     1     -63.960 -56.880 -11.668  0.00  0.00    +0.000 HD
ENDROOT
BRANCH   3  11
ATOM     10  O4* UNL     1     -65.109 -54.940 -16.425  0.00  0.00    +0.000 OA
ATOM     11  C1* UNL     1     -64.032 -55.721 -15.992  0.00  0.00    +0.000 A 
ATOM     12  C3* UNL     1     -63.316 -54.622 -17.856  0.00  0.00    +0.000 A 
ATOM     13  C2* UNL     1     -62.938 -55.542 -16.862  0.00  0.00    +0.000 A 
ATOM     14  C4* UNL     1     -64.682 -54.259 -17.573  0.00  0.00    +0.000 A 
BRANCH  12  15
ATOM     15  O3* UNL     1     -62.845 -54.641 -19.138  0.00  0.00    +0.000 OA
ATOM     16  H3* UNL     1     -61.881 -54.505 -19.158  0.00  0.00    +0.000 HD
ENDBRANCH  12  15
BRANCH  14  17
ATOM     17  C5* UNL     1     -65.567 -53.535 -18.395  0.00  0.00    +0.000 C 
BRANCH  17  18
ATOM     18  O5* UNL     1     -66.400 -52.853 -19.176  0.00  0.00    +0.000 OA
ATOM     19  H5* UNL     1     -66.002 -52.002 -19.430  0.00  0.00    +0.000 HD
ENDBRANCH  17  18
ENDBRANCH  14  17
ENDBRANCH   3  11
BRANCH   7  23
ATOM     20  F   UNL     1     -65.897 -60.754 -13.997  0.00  0.00    +0.000 F 
ATOM     21  F   UNL     1     -65.021 -60.442 -15.960  0.00  0.00    +0.000 F 
ATOM     22  F   UNL     1     -63.759 -61.089 -14.317  0.00  0.00    +0.000 F 
ATOM     23  C   UNL     1     -64.796 -60.273 -14.628  0.00  0.00    +0.000 C 
ENDBRANCH   7  23
TORSDOF 5
ENDMDL
MODEL 5
REMARK VINA RESULT:      -5.0     16.901     17.858
REMARK  Name = 6256_Trifluridine.pdbqt.pdb
REMARK  5 active torsions:
REMARK  status: ('A' for Active; 'I' for Inactive)
REMARK    1  A    between atoms: N_3  and  C1*_11
REMARK    2  A    between atoms: C_7  and  C_23
REMARK    3  A    between atoms: C3*_12  and  O3*_15
REMARK    4  A    between atoms: C4*_14  and  C5*_17
REMARK    5  A    between atoms: C5*_17  and  O5*_18
REMARK                            x       y       z     vdW  Elec       q    Type
REMARK                         _______ _______ _______ _____ _____    ______ ____
ROOT
ATOM      1  O   UNL     1     -66.819 -63.493 -75.551  0.00  0.00    +0.000 OA
ATOM      2  O   UNL     1     -63.848 -62.711 -78.960  0.00  0.00    +0.000 OA
ATOM      3  N   UNL     1     -65.669 -61.423 -75.572  0.00  0.00    +0.000 N 
ATOM      4  N   UNL     1     -65.325 -63.041 -77.235  0.00  0.00    +0.000 N 
ATOM      5  C   UNL     1     -64.758 -60.737 -76.290  0.00  0.00    +0.000 A 
ATOM      6  C   UNL     1     -66.021 -62.707 -76.047  0.00  0.00    +0.000 A 
ATOM      7  C   UNL     1     -64.075 -60.955 -77.366  0.00  0.00    +0.000 A 
ATOM      8  C   UNL     1     -64.380 -62.289 -77.943  0.00  0.00    +0.000 A 
ATOM      9  H   UNL     1     -65.541 -63.951 -77.615  0.00  0.00    +0.000 HD
ENDROOT
BRANCH   3  11
ATOM     10  O4* UNL     1     -67.279 -59.982 -74.486  0.00  0.00    +0.000 OA
ATOM     11  C1* UNL     1     -66.188 -60.857 -74.443  0.00  0.00    +0.000 A 
ATOM     12  C3* UNL     1     -66.578 -60.217 -72.291  0.00  0.00    +0.000 A 
ATOM     13  C2* UNL     1     -65.748 -61.000 -73.113  0.00  0.00    +0.000 A 
ATOM     14  C4* UNL     1     -67.528 -59.579 -73.167  0.00  0.00    +0.000 A 
BRANCH  12  15
ATOM     15  O3* UNL     1     -66.165 -59.609 -71.139  0.00  0.00    +0.000 OA
ATOM     16  H3* UNL     1     -65.294 -59.943 -70.862  0.00  0.00    +0.000 HD
ENDBRANCH  12  15
BRANCH  14  17
ATOM     17  C5* UNL     1     -68.426 -58.541 -72.851  0.00  0.00    +0.000 C 
BRANCH  17  18
ATOM     18  O5* UNL     1     -69.277 -57.564 -72.549  0.00  0.00    +0.000 OA
ATOM     19  H5* UNL     1     -68.961 -56.719 -72.914  0.00  0.00    +0.000 HD
ENDBRANCH  17  18
ENDBRANCH  14  17
ENDBRANCH   3  11
BRANCH   7  23
ATOM     20  F   UNL     1     -62.800 -58.980 -77.348  0.00  0.00    +0.000 F 
ATOM     21  F   UNL     1     -61.890 -60.763 -78.190  0.00  0.00    +0.000 F 
ATOM     22  F   UNL     1     -63.464 -59.747 -79.287  0.00  0.00    +0.000 F 
ATOM     23  C   UNL     1     -63.078 -60.114 -78.040  0.00  0.00    +0.000 C 
ENDBRANCH   7  23
TORSDOF 5
ENDMDL
MODEL 6
REMARK VINA RESULT:      -5.0      3.119      6.743
REMARK  Name = 6256_Trifluridine.pdbqt.pdb
REMARK  5 active torsions:
REMARK  status: ('A' for Active; 'I' for Inactive)
REMARK    1  A    between atoms: N_3  and  C1*_11
REMARK    2  A    between atoms: C_7  and  C_23
REMARK    3  A    between atoms: C3*_12  and  O3*_15
REMARK    4  A    between atoms: C4*_14  and  C5*_17
REMARK    5  A    between atoms: C5*_17  and  O5*_18
REMARK                            x       y       z     vdW  Elec       q    Type
REMARK                         _______ _______ _______ _____ _____    ______ ____
ROOT
ATOM      1  O   UNL     1     -61.271 -60.072 -59.863  0.00  0.00    +0.000 OA
ATOM      2  O   UNL     1     -61.683 -55.776 -58.299  0.00  0.00    +0.000 OA
ATOM      3  N   UNL     1     -60.001 -58.375 -60.920  0.00  0.00    +0.000 N 
ATOM      4  N   UNL     1     -61.429 -57.904 -59.121  0.00  0.00    +0.000 N 
ATOM      5  C   UNL     1     -59.767 -57.049 -60.861  0.00  0.00    +0.000 A 
ATOM      6  C   UNL     1     -60.915 -58.905 -59.981  0.00  0.00    +0.000 A 
ATOM      7  C   UNL     1     -60.183 -56.070 -60.127  0.00  0.00    +0.000 A 
ATOM      8  C   UNL     1     -61.154 -56.531 -59.103  0.00  0.00    +0.000 A 
ATOM      9  H   UNL     1     -62.090 -58.232 -58.431  0.00  0.00    +0.000 HD
ENDROOT
BRANCH   3  11
ATOM     10  O4* UNL     1     -59.620 -58.963 -63.235  0.00  0.00    +0.000 OA
ATOM     11  C1* UNL     1     -59.363 -59.121 -61.869  0.00  0.00    +0.000 A 
ATOM     12  C3* UNL     1     -58.046 -60.637 -62.947  0.00  0.00    +0.000 A 
ATOM     13  C2* UNL     1     -58.413 -60.145 -61.682  0.00  0.00    +0.000 A 
ATOM     14  C4* UNL     1     -58.817 -59.892 -63.910  0.00  0.00    +0.000 A 
BRANCH  12  15
ATOM     15  O3* UNL     1     -57.679 -61.931 -63.189  0.00  0.00    +0.000 OA
ATOM     16  H3* UNL     1     -56.715 -62.005 -63.298  0.00  0.00    +0.000 HD
ENDBRANCH  12  15
BRANCH  14  17
ATOM     17  C5* UNL     1     -58.961 -60.158 -65.286  0.00  0.00    +0.000 C 
BRANCH  17  18
ATOM     18  O5* UNL     1     -59.100 -60.407 -66.585  0.00  0.00    +0.000 OA
ATOM     19  H5* UNL     1     -59.931 -60.886 -66.748  0.00  0.00    +0.000 HD
ENDBRANCH  17  18
ENDBRANCH  14  17
ENDBRANCH   3  11
BRANCH   7  23
ATOM     20  F   UNL     1     -59.548 -54.124 -58.969  0.00  0.00    +0.000 F 
ATOM     21  F   UNL     1     -58.776 -54.402 -60.980  0.00  0.00    +0.000 F 
ATOM     22  F   UNL     1     -60.868 -53.896 -60.699  0.00  0.00    +0.000 F 
ATOM     23  C   UNL     1     -59.857 -54.639 -60.186  0.00  0.00    +0.000 C 
ENDBRANCH   7  23
TORSDOF 5
ENDMDL
MODEL 7
REMARK VINA RESULT:      -4.9      9.673     10.165
REMARK  Name = 6256_Trifluridine.pdbqt.pdb
REMARK  5 active torsions:
REMARK  status: ('A' for Active; 'I' for Inactive)
REMARK    1  A    between atoms: N_3  and  C1*_11
REMARK    2  A    between atoms: C_7  and  C_23
REMARK    3  A    between atoms: C3*_12  and  O3*_15
REMARK    4  A    between atoms: C4*_14  and  C5*_17
REMARK    5  A    between atoms: C5*_17  and  O5*_18
REMARK                            x       y       z     vdW  Elec       q    Type
REMARK                         _______ _______ _______ _____ _____    ______ ____
ROOT
ATOM      1  O   UNL     1     -65.004 -46.157 -56.099  0.00  0.00    +0.000 OA
ATOM      2  O   UNL     1     -60.832 -45.910 -57.995  0.00  0.00    +0.000 OA
ATOM      3  N   UNL     1     -64.825 -46.462 -58.441  0.00  0.00    +0.000 N 
ATOM      4  N   UNL     1     -62.942 -46.052 -57.105  0.00  0.00    +0.000 N 
ATOM      5  C   UNL     1     -63.908 -46.487 -59.428  0.00  0.00    +0.000 A 
ATOM      6  C   UNL     1     -64.348 -46.223 -57.132  0.00  0.00    +0.000 A 
ATOM      7  C   UNL     1     -62.626 -46.340 -59.502  0.00  0.00    +0.000 A 
ATOM      8  C   UNL     1     -62.030 -46.084 -58.166  0.00  0.00    +0.000 A 
ATOM      9  H   UNL     1     -62.550 -45.877 -56.190  0.00  0.00    +0.000 HD
ENDROOT
BRANCH   3  11
ATOM     10  O4* UNL     1     -67.002 -47.374 -57.913  0.00  0.00    +0.000 OA
ATOM     11  C1* UNL     1     -66.141 -46.657 -58.750  0.00  0.00    +0.000 A 
ATOM     12  C3* UNL     1     -68.168 -46.682 -59.790  0.00  0.00    +0.000 A 
ATOM     13  C2* UNL     1     -66.838 -46.240 -59.901  0.00  0.00    +0.000 A 
ATOM     14  C4* UNL     1     -68.254 -47.398 -58.542  0.00  0.00    +0.000 A 
BRANCH  12  15
ATOM     15  O3* UNL     1     -68.953 -47.027 -60.854  0.00  0.00    +0.000 OA
ATOM     16  H3* UNL     1     -69.450 -47.844 -60.670  0.00  0.00    +0.000 HD
ENDBRANCH  12  15
BRANCH  14  17
ATOM     17  C5* UNL     1     -69.315 -48.204 -58.085  0.00  0.00    +0.000 C 
BRANCH  17  18
ATOM     18  O5* UNL     1     -70.319 -48.962 -57.655  0.00  0.00    +0.000 OA
ATOM     19  H5* UNL     1     -71.090 -48.409 -57.440  0.00  0.00    +0.000 HD
ENDBRANCH  17  18
ENDBRANCH  14  17
ENDBRANCH   3  11
BRANCH   7  23
ATOM     20  F   UNL     1     -62.341 -46.880 -61.773  0.00  0.00    +0.000 F 
ATOM     21  F   UNL     1     -61.319 -45.120 -61.016  0.00  0.00    +0.000 F 
ATOM     22  F   UNL     1     -60.611 -47.093 -60.450  0.00  0.00    +0.000 F 
ATOM     23  C   UNL     1     -61.737 -46.369 -60.670  0.00  0.00    +0.000 C 
ENDBRANCH   7  23
TORSDOF 5
ENDMDL
MODEL 8
REMARK VINA RESULT:      -4.8     19.384     21.870
REMARK  Name = 6256_Trifluridine.pdbqt.pdb
REMARK  5 active torsions:
REMARK  status: ('A' for Active; 'I' for Inactive)
REMARK    1  A    between atoms: N_3  and  C1*_11
REMARK    2  A    between atoms: C_7  and  C_23
REMARK    3  A    between atoms: C3*_12  and  O3*_15
REMARK    4  A    between atoms: C4*_14  and  C5*_17
REMARK    5  A    between atoms: C5*_17  and  O5*_18
REMARK                            x       y       z     vdW  Elec       q    Type
REMARK                         _______ _______ _______ _____ _____    ______ ____
ROOT
ATOM      1  O   UNL     1     -71.067 -55.700 -37.563  0.00  0.00    +0.000 OA
ATOM      2  O   UNL     1     -69.455 -53.328 -41.146  0.00  0.00    +0.000 OA
ATOM      3  N   UNL     1     -68.826 -56.076 -38.230  0.00  0.00    +0.000 N 
ATOM      4  N   UNL     1     -70.201 -54.538 -39.344  0.00  0.00    +0.000 N 
ATOM      5  C   UNL     1     -67.923 -55.676 -39.147  0.00  0.00    +0.000 A 
ATOM      6  C   UNL     1     -70.106 -55.481 -38.291  0.00  0.00    +0.000 A 
ATOM      7  C   UNL     1     -67.916 -54.839 -40.133  0.00  0.00    +0.000 A 
ATOM      8  C   UNL     1     -69.228 -54.158 -40.277  0.00  0.00    +0.000 A 
ATOM      9  H   UNL     1     -71.099 -54.084 -39.432  0.00  0.00    +0.000 HD
ENDROOT
BRANCH   3  11
ATOM     10  O4* UNL     1     -68.474 -56.764 -35.938  0.00  0.00    +0.000 OA
ATOM     11  C1* UNL     1     -68.466 -57.022 -37.313  0.00  0.00    +0.000 A 
ATOM     12  C3* UNL     1     -67.748 -58.933 -36.299  0.00  0.00    +0.000 A 
ATOM     13  C2* UNL     1     -68.016 -58.337 -37.544  0.00  0.00    +0.000 A 
ATOM     14  C4* UNL     1     -68.033 -57.931 -35.302  0.00  0.00    +0.000 A 
BRANCH  12  15
ATOM     15  O3* UNL     1     -66.782 -59.876 -36.092  0.00  0.00    +0.000 OA
ATOM     16  H3* UNL     1     -66.987 -60.420 -35.312  0.00  0.00    +0.000 HD
ENDBRANCH  12  15
BRANCH  14  17
ATOM     17  C5* UNL     1     -67.722 -57.974 -33.929  0.00  0.00    +0.000 C 
BRANCH  17  18
ATOM     18  O5* UNL     1     -67.431 -58.017 -32.632  0.00  0.00    +0.000 OA
ATOM     19  H5* UNL     1     -66.946 -58.834 -32.424  0.00  0.00    +0.000 HD
ENDBRANCH  17  18
ENDBRANCH  14  17
ENDBRANCH   3  11
BRANCH   7  23
ATOM     20  F   UNL     1     -66.470 -53.209 -41.015  0.00  0.00    +0.000 F 
ATOM     21  F   UNL     1     -65.725 -55.243 -40.857  0.00  0.00    +0.000 F 
ATOM     22  F   UNL     1     -67.204 -54.761 -42.371  0.00  0.00    +0.000 F 
ATOM     23  C   UNL     1     -66.850 -54.510 -41.087  0.00  0.00    +0.000 C 
ENDBRANCH   7  23
TORSDOF 5
ENDMDL
MODEL 9
REMARK VINA RESULT:      -4.8     15.201     17.722
REMARK  Name = 6256_Trifluridine.pdbqt.pdb
REMARK  5 active torsions:
REMARK  status: ('A' for Active; 'I' for Inactive)
REMARK    1  A    between atoms: N_3  and  C1*_11
REMARK    2  A    between atoms: C_7  and  C_23
REMARK    3  A    between atoms: C3*_12  and  O3*_15
REMARK    4  A    between atoms: C4*_14  and  C5*_17
REMARK    5  A    between atoms: C5*_17  and  O5*_18
REMARK                            x       y       z     vdW  Elec       q    Type
REMARK                         _______ _______ _______ _____ _____    ______ ____
ROOT
ATOM      1  O   UNL     1     -66.269 -59.208 -42.587  0.00  0.00    +0.000 OA
ATOM      2  O   UNL     1     -68.783 -56.484 -39.882  0.00  0.00    +0.000 OA
ATOM      3  N   UNL     1     -65.587 -56.954 -42.334  0.00  0.00    +0.000 N 
ATOM      4  N   UNL     1     -67.482 -57.798 -41.241  0.00  0.00    +0.000 N 
ATOM      5  C   UNL     1     -65.940 -55.816 -41.705  0.00  0.00    +0.000 A 
ATOM      6  C   UNL     1     -66.405 -58.085 -42.116  0.00  0.00    +0.000 A 
ATOM      7  C   UNL     1     -66.890 -55.460 -40.904  0.00  0.00    +0.000 A 
ATOM      8  C   UNL     1     -67.808 -56.590 -40.613  0.00  0.00    +0.000 A 
ATOM      9  H   UNL     1     -68.099 -58.575 -41.053  0.00  0.00    +0.000 HD
ENDROOT
BRANCH   3  11
ATOM     10  O4* UNL     1     -64.577 -56.819 -44.528  0.00  0.00    +0.000 OA
ATOM     11  C1* UNL     1     -64.483 -56.954 -43.138  0.00  0.00    +0.000 A 
ATOM     12  C3* UNL     1     -62.351 -57.059 -43.936  0.00  0.00    +0.000 A 
ATOM     13  C2* UNL     1     -63.133 -57.111 -42.769  0.00  0.00    +0.000 A 
ATOM     14  C4* UNL     1     -63.271 -56.883 -45.031  0.00  0.00    +0.000 A 
BRANCH  12  15
ATOM     15  O3* UNL     1     -61.179 -57.741 -44.105  0.00  0.00    +0.000 OA
ATOM     16  H3* UNL     1     -60.855 -57.656 -45.019  0.00  0.00    +0.000 HD
ENDBRANCH  12  15
BRANCH  14  17
ATOM     17  C5* UNL     1     -62.996 -56.985 -46.409  0.00  0.00    +0.000 C 
BRANCH  17  18
ATOM     18  O5* UNL     1     -62.733 -57.079 -47.709  0.00  0.00    +0.000 OA
ATOM     19  H5* UNL     1     -62.954 -57.969 -48.034  0.00  0.00    +0.000 HD
ENDBRANCH  17  18
ENDBRANCH  14  17
ENDBRANCH   3  11
BRANCH   7  23
ATOM     20  F   UNL     1     -66.949 -54.138 -38.961  0.00  0.00    +0.000 F 
ATOM     21  F   UNL     1     -66.392 -53.172 -40.825  0.00  0.00    +0.000 F 
ATOM     22  F   UNL     1     -68.458 -53.756 -40.499  0.00  0.00    +0.000 F 
ATOM     23  C   UNL     1     -67.177 -54.153 -40.298  0.00  0.00    +0.000 C 
ENDBRANCH   7  23
TORSDOF 5
ENDMDL
