MODEL 1
REMARK VINA RESULT:      -4.4      0.000      0.000
REMARK  Name = 6323266_Tipiracil.pdbqt.pdb
REMARK  2 active torsions:
REMARK  status: ('A' for Active; 'I' for Inactive)
REMARK    1  A    between atoms: C_6  and  C_12
REMARK    2  A    between atoms: C_12  and  N_13
REMARK                            x       y       z     vdW  Elec       q    Type
REMARK                         _______ _______ _______ _____ _____    ______ ____
ROOT
ATOM      1 CL   UNL     1     -65.105 -46.359 -59.856  0.00  0.00    +0.000 Cl
ATOM      2  O   UNL     1     -67.154 -46.824 -57.709  0.00  0.00    +0.000 OA
ATOM      3  O   UNL     1     -64.331 -46.984 -54.170  0.00  0.00    +0.000 OA
ATOM      4  N   UNL     1     -63.463 -46.645 -56.239  0.00  0.00    +0.000 N 
ATOM      5  N   UNL     1     -65.738 -46.892 -55.946  0.00  0.00    +0.000 N 
ATOM      6  C   UNL     1     -63.615 -46.490 -57.593  0.00  0.00    +0.000 A 
ATOM      7  C   UNL     1     -64.825 -46.536 -58.167  0.00  0.00    +0.000 A 
ATOM      8  C   UNL     1     -66.004 -46.758 -57.284  0.00  0.00    +0.000 A 
ATOM      9  C   UNL     1     -64.500 -46.848 -55.376  0.00  0.00    +0.000 A 
ATOM     10  H   UNL     1     -62.532 -46.609 -55.828  0.00  0.00    +0.000 HD
ATOM     11  H   UNL     1     -66.523 -47.044 -55.330  0.00  0.00    +0.000 HD
ENDROOT
BRANCH   6  12
ATOM     12  C   UNL     1     -62.414 -46.285 -58.324  0.00  0.00    +0.000 C 
BRANCH  12  13
ATOM     13  N   UNL     1     -61.222 -45.951 -59.080  0.00  0.00    +0.000 N 
ATOM     14  N   UNL     1     -61.608 -47.463 -60.994  0.00  0.00    +0.000 NA
ATOM     15  C   UNL     1     -60.908 -44.535 -59.266  0.00  0.00    +0.000 C 
ATOM     16  C   UNL     1     -60.533 -43.922 -60.611  0.00  0.00    +0.000 C 
ATOM     17  C   UNL     1     -60.761 -45.306 -61.222  0.00  0.00    +0.000 C 
ATOM     18  C   UNL     1     -61.224 -46.399 -60.395  0.00  0.00    +0.000 C 
ATOM     19  H   UNL     1     -61.464 -47.383 -62.007  0.00  0.00    +0.000 HD
ENDBRANCH  12  13
ENDBRANCH   6  12
TORSDOF 2
ENDMDL
MODEL 2
REMARK VINA RESULT:      -4.4     26.610     29.380
REMARK  Name = 6323266_Tipiracil.pdbqt.pdb
REMARK  2 active torsions:
REMARK  status: ('A' for Active; 'I' for Inactive)
REMARK    1  A    between atoms: C_6  and  C_12
REMARK    2  A    between atoms: C_12  and  N_13
REMARK                            x       y       z     vdW  Elec       q    Type
REMARK                         _______ _______ _______ _____ _____    ______ ____
ROOT
ATOM      1 CL   UNL     1     -70.604 -55.803 -34.146  0.00  0.00    +0.000 Cl
ATOM      2  O   UNL     1     -68.940 -57.207 -36.217  0.00  0.00    +0.000 OA
ATOM      3  O   UNL     1     -67.030 -60.291 -33.504  0.00  0.00    +0.000 OA
ATOM      4  N   UNL     1     -68.484 -58.801 -32.601  0.00  0.00    +0.000 N 
ATOM      5  N   UNL     1     -67.999 -58.750 -34.856  0.00  0.00    +0.000 N 
ATOM      6  C   UNL     1     -69.342 -57.738 -32.723  0.00  0.00    +0.000 A 
ATOM      7  C   UNL     1     -69.552 -57.145 -33.906  0.00  0.00    +0.000 A 
ATOM      8  C   UNL     1     -68.824 -57.681 -35.091  0.00  0.00    +0.000 A 
ATOM      9  C   UNL     1     -67.791 -59.341 -33.645  0.00  0.00    +0.000 A 
ATOM     10  H   UNL     1     -68.339 -59.231 -31.691  0.00  0.00    +0.000 HD
ATOM     11  H   UNL     1     -67.496 -59.129 -35.646  0.00  0.00    +0.000 HD
ENDROOT
BRANCH   6  12
ATOM     12  C   UNL     1     -69.974 -57.321 -31.520  0.00  0.00    +0.000 C 
BRANCH  12  13
ATOM     13  N   UNL     1     -70.623 -57.020 -30.259  0.00  0.00    +0.000 N 
ATOM     14  N   UNL     1     -69.451 -54.901 -29.779  0.00  0.00    +0.000 NA
ATOM     15  C   UNL     1     -72.081 -57.128 -30.200  0.00  0.00    +0.000 C 
ATOM     16  C   UNL     1     -72.983 -56.057 -29.598  0.00  0.00    +0.000 C 
ATOM     17  C   UNL     1     -71.719 -55.230 -29.359  0.00  0.00    +0.000 C 
ATOM     18  C   UNL     1     -70.432 -55.723 -29.802  0.00  0.00    +0.000 C 
ATOM     19  H   UNL     1     -69.739 -54.001 -29.377  0.00  0.00    +0.000 HD
ENDBRANCH  12  13
ENDBRANCH   6  12
TORSDOF 2
ENDMDL
MODEL 3
REMARK VINA RESULT:      -4.3     27.115     28.613
REMARK  Name = 6323266_Tipiracil.pdbqt.pdb
REMARK  2 active torsions:
REMARK  status: ('A' for Active; 'I' for Inactive)
REMARK    1  A    between atoms: C_6  and  C_12
REMARK    2  A    between atoms: C_12  and  N_13
REMARK                            x       y       z     vdW  Elec       q    Type
REMARK                         _______ _______ _______ _____ _____    ______ ____
ROOT
ATOM      1 CL   UNL     1     -70.914 -56.269 -34.424  0.00  0.00    +0.000 Cl
ATOM      2  O   UNL     1     -72.495 -54.448 -32.632  0.00  0.00    +0.000 OA
ATOM      3  O   UNL     1     -70.024 -54.964 -28.871  0.00  0.00    +0.000 OA
ATOM      4  N   UNL     1     -69.406 -56.091 -30.741  0.00  0.00    +0.000 N 
ATOM      5  N   UNL     1     -71.249 -54.704 -30.762  0.00  0.00    +0.000 N 
ATOM      6  C   UNL     1     -69.590 -56.419 -32.060  0.00  0.00    +0.000 A 
ATOM      7  C   UNL     1     -70.606 -55.907 -32.769  0.00  0.00    +0.000 A 
ATOM      8  C   UNL     1     -71.531 -54.966 -32.077  0.00  0.00    +0.000 A 
ATOM      9  C   UNL     1     -70.214 -55.235 -30.051  0.00  0.00    +0.000 A 
ATOM     10  H   UNL     1     -68.629 -56.497 -30.224  0.00  0.00    +0.000 HD
ATOM     11  H   UNL     1     -71.864 -54.069 -30.274  0.00  0.00    +0.000 HD
ENDROOT
BRANCH   6  12
ATOM     12  C   UNL     1     -68.641 -57.326 -32.604  0.00  0.00    +0.000 C 
BRANCH  12  13
ATOM     13  N   UNL     1     -67.772 -58.322 -33.199  0.00  0.00    +0.000 N 
ATOM     14  N   UNL     1     -69.248 -60.278 -32.890  0.00  0.00    +0.000 NA
ATOM     15  C   UNL     1     -67.163 -58.010 -34.492  0.00  0.00    +0.000 C 
ATOM     16  C   UNL     1     -67.157 -58.970 -35.677  0.00  0.00    +0.000 C 
ATOM     17  C   UNL     1     -67.974 -59.929 -34.809  0.00  0.00    +0.000 C 
ATOM     18  C   UNL     1     -68.386 -59.537 -33.479  0.00  0.00    +0.000 C 
ATOM     19  H   UNL     1     -69.472 -61.100 -33.463  0.00  0.00    +0.000 HD
ENDBRANCH  12  13
ENDBRANCH   6  12
TORSDOF 2
ENDMDL
MODEL 4
REMARK VINA RESULT:      -4.3      3.586      5.826
REMARK  Name = 6323266_Tipiracil.pdbqt.pdb
REMARK  2 active torsions:
REMARK  status: ('A' for Active; 'I' for Inactive)
REMARK    1  A    between atoms: C_6  and  C_12
REMARK    2  A    between atoms: C_12  and  N_13
REMARK                            x       y       z     vdW  Elec       q    Type
REMARK                         _______ _______ _______ _____ _____    ______ ____
ROOT
ATOM      1 CL   UNL     1     -63.628 -45.314 -56.785  0.00  0.00    +0.000 Cl
ATOM      2  O   UNL     1     -60.841 -45.969 -57.693  0.00  0.00    +0.000 OA
ATOM      3  O   UNL     1     -61.840 -47.255 -61.919  0.00  0.00    +0.000 OA
ATOM      4  N   UNL     1     -63.529 -46.587 -60.558  0.00  0.00    +0.000 N 
ATOM      5  N   UNL     1     -61.348 -46.600 -59.805  0.00  0.00    +0.000 N 
ATOM      6  C   UNL     1     -63.983 -46.123 -59.350  0.00  0.00    +0.000 A 
ATOM      7  C   UNL     1     -63.143 -45.888 -58.334  0.00  0.00    +0.000 A 
ATOM      8  C   UNL     1     -61.692 -46.145 -58.559  0.00  0.00    +0.000 A 
ATOM      9  C   UNL     1     -62.216 -46.839 -60.829  0.00  0.00    +0.000 A 
ATOM     10  H   UNL     1     -64.188 -46.761 -61.313  0.00  0.00    +0.000 HD
ATOM     11  H   UNL     1     -60.370 -46.781 -59.978  0.00  0.00    +0.000 HD
ENDROOT
BRANCH   6  12
ATOM     12  C   UNL     1     -65.387 -45.918 -59.263  0.00  0.00    +0.000 C 
BRANCH  12  13
ATOM     13  N   UNL     1     -66.807 -45.626 -59.271  0.00  0.00    +0.000 N 
ATOM     14  N   UNL     1     -66.747 -43.723 -60.843  0.00  0.00    +0.000 NA
ATOM     15  C   UNL     1     -67.732 -46.746 -59.449  0.00  0.00    +0.000 C 
ATOM     16  C   UNL     1     -68.897 -46.732 -60.432  0.00  0.00    +0.000 C 
ATOM     17  C   UNL     1     -68.419 -45.345 -60.865  0.00  0.00    +0.000 C 
ATOM     18  C   UNL     1     -67.220 -44.775 -60.288  0.00  0.00    +0.000 C 
ATOM     19  H   UNL     1     -67.356 -43.408 -61.606  0.00  0.00    +0.000 HD
ENDBRANCH  12  13
ENDBRANCH   6  12
TORSDOF 2
ENDMDL
MODEL 5
REMARK VINA RESULT:      -4.3     13.598     15.426
REMARK  Name = 6323266_Tipiracil.pdbqt.pdb
REMARK  2 active torsions:
REMARK  status: ('A' for Active; 'I' for Inactive)
REMARK    1  A    between atoms: C_6  and  C_12
REMARK    2  A    between atoms: C_12  and  N_13
REMARK                            x       y       z     vdW  Elec       q    Type
REMARK                         _______ _______ _______ _____ _____    ______ ____
ROOT
ATOM      1 CL   UNL     1     -49.987 -52.529 -67.206  0.00  0.00    +0.000 Cl
ATOM      2  O   UNL     1     -49.462 -49.621 -67.748  0.00  0.00    +0.000 OA
ATOM      3  O   UNL     1     -51.869 -47.897 -64.320  0.00  0.00    +0.000 OA
ATOM      4  N   UNL     1     -51.791 -50.152 -64.568  0.00  0.00    +0.000 N 
ATOM      5  N   UNL     1     -50.658 -48.770 -66.027  0.00  0.00    +0.000 N 
ATOM      6  C   UNL     1     -51.358 -51.271 -65.231  0.00  0.00    +0.000 A 
ATOM      7  C   UNL     1     -50.569 -51.179 -66.311  0.00  0.00    +0.000 A 
ATOM      8  C   UNL     1     -50.175 -49.817 -66.768  0.00  0.00    +0.000 A 
ATOM      9  C   UNL     1     -51.464 -48.879 -64.933  0.00  0.00    +0.000 A 
ATOM     10  H   UNL     1     -52.393 -50.249 -63.753  0.00  0.00    +0.000 HD
ATOM     11  H   UNL     1     -50.403 -47.838 -66.320  0.00  0.00    +0.000 HD
ENDROOT
BRANCH   6  12
ATOM     12  C   UNL     1     -51.804 -52.510 -64.697  0.00  0.00    +0.000 C 
BRANCH  12  13
ATOM     13  N   UNL     1     -52.268 -53.715 -64.037  0.00  0.00    +0.000 N 
ATOM     14  N   UNL     1     -54.115 -52.701 -62.751  0.00  0.00    +0.000 NA
ATOM     15  C   UNL     1     -52.463 -54.910 -64.859  0.00  0.00    +0.000 C 
ATOM     16  C   UNL     1     -53.713 -55.780 -64.801  0.00  0.00    +0.000 C 
ATOM     17  C   UNL     1     -54.270 -54.783 -63.783  0.00  0.00    +0.000 C 
ATOM     18  C   UNL     1     -53.511 -53.603 -63.429  0.00  0.00    +0.000 C 
ATOM     19  H   UNL     1     -55.066 -53.002 -62.509  0.00  0.00    +0.000 HD
ENDBRANCH  12  13
ENDBRANCH   6  12
TORSDOF 2
ENDMDL
MODEL 6
REMARK VINA RESULT:      -4.3     31.913     34.066
REMARK  Name = 6323266_Tipiracil.pdbqt.pdb
REMARK  2 active torsions:
REMARK  status: ('A' for Active; 'I' for Inactive)
REMARK    1  A    between atoms: C_6  and  C_12
REMARK    2  A    between atoms: C_12  and  N_13
REMARK                            x       y       z     vdW  Elec       q    Type
REMARK                         _______ _______ _______ _____ _____    ______ ____
ROOT
ATOM      1 CL   UNL     1     -62.240 -52.051 -22.163  0.00  0.00    +0.000 Cl
ATOM      2  O   UNL     1     -62.054 -55.003 -21.633  0.00  0.00    +0.000 OA
ATOM      3  O   UNL     1     -60.438 -56.267 -25.671  0.00  0.00    +0.000 OA
ATOM      4  N   UNL     1     -60.851 -54.066 -25.306  0.00  0.00    +0.000 N 
ATOM      5  N   UNL     1     -61.238 -55.624 -23.649  0.00  0.00    +0.000 N 
ATOM      6  C   UNL     1     -61.271 -53.042 -24.496  0.00  0.00    +0.000 A 
ATOM      7  C   UNL     1     -61.690 -53.273 -23.244  0.00  0.00    +0.000 A 
ATOM      8  C   UNL     1     -61.684 -54.682 -22.758  0.00  0.00    +0.000 A 
ATOM      9  C   UNL     1     -60.818 -55.374 -24.922  0.00  0.00    +0.000 A 
ATOM     10  H   UNL     1     -60.541 -53.864 -26.254  0.00  0.00    +0.000 HD
ATOM     11  H   UNL     1     -61.225 -56.585 -23.340  0.00  0.00    +0.000 HD
ENDROOT
BRANCH   6  12
ATOM     12  C   UNL     1     -61.230 -51.746 -25.076  0.00  0.00    +0.000 C 
BRANCH  12  13
ATOM     13  N   UNL     1     -61.124 -50.475 -25.767  0.00  0.00    +0.000 N 
ATOM     14  N   UNL     1     -58.965 -50.887 -26.892  0.00  0.00    +0.000 NA
ATOM     15  C   UNL     1     -62.298 -49.998 -26.498  0.00  0.00    +0.000 C 
ATOM     16  C   UNL     1     -62.245 -49.467 -27.926  0.00  0.00    +0.000 C 
ATOM     17  C   UNL     1     -60.752 -49.798 -27.915  0.00  0.00    +0.000 C 
ATOM     18  C   UNL     1     -60.155 -50.433 -26.760  0.00  0.00    +0.000 C 
ATOM     19  H   UNL     1     -58.591 -50.665 -27.821  0.00  0.00    +0.000 HD
ENDBRANCH  12  13
ENDBRANCH   6  12
TORSDOF 2
ENDMDL
MODEL 7
REMARK VINA RESULT:      -4.3      3.386      5.713
REMARK  Name = 6323266_Tipiracil.pdbqt.pdb
REMARK  2 active torsions:
REMARK  status: ('A' for Active; 'I' for Inactive)
REMARK    1  A    between atoms: C_6  and  C_12
REMARK    2  A    between atoms: C_12  and  N_13
REMARK                            x       y       z     vdW  Elec       q    Type
REMARK                         _______ _______ _______ _____ _____    ______ ____
ROOT
ATOM      1 CL   UNL     1     -62.871 -46.595 -57.312  0.00  0.00    +0.000 Cl
ATOM      2  O   UNL     1     -60.263 -45.147 -57.669  0.00  0.00    +0.000 OA
ATOM      3  O   UNL     1     -61.444 -42.593 -61.219  0.00  0.00    +0.000 OA
ATOM      4  N   UNL     1     -62.979 -44.018 -60.346  0.00  0.00    +0.000 N 
ATOM      5  N   UNL     1     -60.865 -43.868 -59.435  0.00  0.00    +0.000 N 
ATOM      6  C   UNL     1     -63.349 -44.969 -59.430  0.00  0.00    +0.000 A 
ATOM      7  C   UNL     1     -62.493 -45.402 -58.494  0.00  0.00    +0.000 A 
ATOM      8  C   UNL     1     -61.124 -44.815 -58.479  0.00  0.00    +0.000 A 
ATOM      9  C   UNL     1     -61.744 -43.439 -60.385  0.00  0.00    +0.000 A 
ATOM     10  H   UNL     1     -63.646 -43.709 -61.050  0.00  0.00    +0.000 HD
ATOM     11  H   UNL     1     -59.943 -43.457 -59.443  0.00  0.00    +0.000 HD
ENDROOT
BRANCH   6  12
ATOM     12  C   UNL     1     -64.680 -45.450 -59.550  0.00  0.00    +0.000 C 
BRANCH  12  13
ATOM     13  N   UNL     1     -66.018 -46.010 -59.566  0.00  0.00    +0.000 N 
ATOM     14  N   UNL     1     -65.447 -48.208 -60.535  0.00  0.00    +0.000 NA
ATOM     15  C   UNL     1     -66.822 -45.887 -58.350  0.00  0.00    +0.000 C 
ATOM     16  C   UNL     1     -67.591 -47.045 -57.725  0.00  0.00    +0.000 C 
ATOM     17  C   UNL     1     -67.005 -47.931 -58.826  0.00  0.00    +0.000 C 
ATOM     18  C   UNL     1     -66.072 -47.380 -59.784  0.00  0.00    +0.000 C 
ATOM     19  H   UNL     1     -65.768 -49.168 -60.365  0.00  0.00    +0.000 HD
ENDBRANCH  12  13
ENDBRANCH   6  12
TORSDOF 2
ENDMDL
MODEL 8
REMARK VINA RESULT:      -4.2      2.452      3.231
REMARK  Name = 6323266_Tipiracil.pdbqt.pdb
REMARK  2 active torsions:
REMARK  status: ('A' for Active; 'I' for Inactive)
REMARK    1  A    between atoms: C_6  and  C_12
REMARK    2  A    between atoms: C_12  and  N_13
REMARK                            x       y       z     vdW  Elec       q    Type
REMARK                         _______ _______ _______ _____ _____    ______ ____
ROOT
ATOM      1 CL   UNL     1     -63.121 -44.049 -55.060  0.00  0.00    +0.000 Cl
ATOM      2  O   UNL     1     -64.362 -45.354 -52.655  0.00  0.00    +0.000 OA
ATOM      3  O   UNL     1     -65.701 -49.197 -54.645  0.00  0.00    +0.000 OA
ATOM      4  N   UNL     1     -64.632 -47.638 -55.900  0.00  0.00    +0.000 N 
ATOM      5  N   UNL     1     -65.018 -47.274 -53.655  0.00  0.00    +0.000 N 
ATOM      6  C   UNL     1     -64.011 -46.422 -56.030  0.00  0.00    +0.000 A 
ATOM      7  C   UNL     1     -63.878 -45.594 -54.985  0.00  0.00    +0.000 A 
ATOM      8  C   UNL     1     -64.425 -46.039 -53.672  0.00  0.00    +0.000 A 
ATOM      9  C   UNL     1     -65.150 -48.105 -54.728  0.00  0.00    +0.000 A 
ATOM     10  H   UNL     1     -64.723 -48.247 -56.710  0.00  0.00    +0.000 HD
ATOM     11  H   UNL     1     -65.396 -47.595 -52.775  0.00  0.00    +0.000 HD
ENDROOT
BRANCH   6  12
ATOM     12  C   UNL     1     -63.533 -46.114 -57.332  0.00  0.00    +0.000 C 
BRANCH  12  13
ATOM     13  N   UNL     1     -62.928 -45.792 -58.610  0.00  0.00    +0.000 N 
ATOM     14  N   UNL     1     -60.581 -45.686 -57.849  0.00  0.00    +0.000 NA
ATOM     15  C   UNL     1     -63.328 -46.584 -59.773  0.00  0.00    +0.000 C 
ATOM     16  C   UNL     1     -62.340 -47.191 -60.762  0.00  0.00    +0.000 C 
ATOM     17  C   UNL     1     -61.224 -46.628 -59.880  0.00  0.00    +0.000 C 
ATOM     18  C   UNL     1     -61.547 -45.935 -58.651  0.00  0.00    +0.000 C 
ATOM     19  H   UNL     1     -59.685 -45.982 -58.254  0.00  0.00    +0.000 HD
ENDBRANCH  12  13
ENDBRANCH   6  12
TORSDOF 2
ENDMDL
MODEL 9
REMARK VINA RESULT:      -4.2     16.537     17.382
REMARK  Name = 6323266_Tipiracil.pdbqt.pdb
REMARK  2 active torsions:
REMARK  status: ('A' for Active; 'I' for Inactive)
REMARK    1  A    between atoms: C_6  and  C_12
REMARK    2  A    between atoms: C_12  and  N_13
REMARK                            x       y       z     vdW  Elec       q    Type
REMARK                         _______ _______ _______ _____ _____    ______ ____
ROOT
ATOM      1 CL   UNL     1     -55.712 -58.206 -64.480  0.00  0.00    +0.000 Cl
ATOM      2  O   UNL     1     -56.994 -60.706 -63.414  0.00  0.00    +0.000 OA
ATOM      3  O   UNL     1     -58.470 -62.386 -67.354  0.00  0.00    +0.000 OA
ATOM      4  N   UNL     1     -57.349 -60.413 -67.365  0.00  0.00    +0.000 N 
ATOM      5  N   UNL     1     -57.718 -61.542 -65.387  0.00  0.00    +0.000 N 
ATOM      6  C   UNL     1     -56.686 -59.406 -66.711  0.00  0.00    +0.000 A 
ATOM      7  C   UNL     1     -56.522 -59.430 -65.381  0.00  0.00    +0.000 A 
ATOM      8  C   UNL     1     -57.083 -60.590 -64.633  0.00  0.00    +0.000 A 
ATOM      9  C   UNL     1     -57.881 -61.502 -66.741  0.00  0.00    +0.000 A 
ATOM     10  H   UNL     1     -57.463 -60.369 -68.375  0.00  0.00    +0.000 HD
ATOM     11  H   UNL     1     -58.105 -62.337 -64.900  0.00  0.00    +0.000 HD
ENDROOT
BRANCH   6  12
ATOM     12  C   UNL     1     -56.200 -58.356 -67.536  0.00  0.00    +0.000 C 
BRANCH  12  13
ATOM     13  N   UNL     1     -55.604 -57.360 -68.405  0.00  0.00    +0.000 N 
ATOM     14  N   UNL     1     -53.922 -56.496 -66.817  0.00  0.00    +0.000 NA
ATOM     15  C   UNL     1     -55.246 -57.769 -69.764  0.00  0.00    +0.000 C 
ATOM     16  C   UNL     1     -53.899 -57.465 -70.409  0.00  0.00    +0.000 C 
ATOM     17  C   UNL     1     -53.490 -56.823 -69.083  0.00  0.00    +0.000 C 
ATOM     18  C   UNL     1     -54.396 -56.843 -67.955  0.00  0.00    +0.000 C 
ATOM     19  H   UNL     1     -52.946 -56.190 -66.907  0.00  0.00    +0.000 HD
ENDBRANCH  12  13
ENDBRANCH   6  12
TORSDOF 2
ENDMDL
