MODEL 1
REMARK VINA RESULT:      -5.3      0.000      0.000
REMARK  Name = 6325056_Deoxyelephantopin.pdbqt.pdb
REMARK  3 active torsions:
REMARK  status: ('A' for Active; 'I' for Inactive)
REMARK    1  A    between atoms: C_6  and  O_20
REMARK    2  A    between atoms: O_20  and  C_22
REMARK    3  A    between atoms: C_22  and  C_23
REMARK                            x       y       z     vdW  Elec       q    Type
REMARK                         _______ _______ _______ _____ _____    ______ ____
ROOT
ATOM      1  O   UNL     1     -62.431 -46.365 -57.240  0.00  0.00    +0.000 OA
ATOM      2  O   UNL     1     -68.474 -47.670 -55.163  0.00  0.00    +0.000 OA
ATOM      3  O   UNL     1     -60.902 -46.242 -58.949  0.00  0.00    +0.000 OA
ATOM      4  O   UNL     1     -69.442 -47.049 -57.179  0.00  0.00    +0.000 OA
ATOM      5  C   UNL     1     -64.365 -46.910 -58.478  0.00  0.00    +0.000 C 
ATOM      6  C   UNL     1     -65.758 -47.174 -58.840  0.00  0.00    +0.000 C 
ATOM      7  C   UNL     1     -63.801 -46.646 -57.166  0.00  0.00    +0.000 C 
ATOM      8  C   UNL     1     -66.645 -47.936 -58.036  0.00  0.00    +0.000 C 
ATOM      9  C   UNL     1     -63.237 -46.784 -59.376  0.00  0.00    +0.000 C 
ATOM     10  C   UNL     1     -67.548 -48.561 -57.118  0.00  0.00    +0.000 C 
ATOM     11  C   UNL     1     -64.413 -46.715 -55.893  0.00  0.00    +0.000 C 
ATOM     12  C   UNL     1     -67.303 -48.415 -54.906  0.00  0.00    +0.000 C 
ATOM     13  C   UNL     1     -66.190 -47.634 -54.473  0.00  0.00    +0.000 C 
ATOM     14  C   UNL     1     -65.011 -46.866 -54.607  0.00  0.00    +0.000 C 
ATOM     15  C   UNL     1     -67.045 -49.256 -56.007  0.00  0.00    +0.000 C 
ATOM     16  C   UNL     1     -62.042 -46.433 -58.562  0.00  0.00    +0.000 C 
ATOM     17  C   UNL     1     -68.631 -47.696 -56.541  0.00  0.00    +0.000 C 
ATOM     18  C   UNL     1     -63.231 -47.016 -60.694  0.00  0.00    +0.000 C 
ATOM     19  C   UNL     1     -64.256 -46.445 -53.388  0.00  0.00    +0.000 C 
ENDROOT
BRANCH   6  20
ATOM     20  O   UNL     1     -66.207 -46.894 -60.142  0.00  0.00    +0.000 OA
BRANCH  20  22
ATOM     21  O   UNL     1     -68.459 -46.849 -60.616  0.00  0.00    +0.000 OA
ATOM     22  C   UNL     1     -67.441 -46.286 -60.221  0.00  0.00    +0.000 C 
BRANCH  22  23
ATOM     23  C   UNL     1     -67.344 -44.858 -59.748  0.00  0.00    +0.000 C 
ATOM     24  C   UNL     1     -66.358 -43.857 -60.328  0.00  0.00    +0.000 C 
ATOM     25  C   UNL     1     -68.172 -44.363 -58.820  0.00  0.00    +0.000 C 
ENDBRANCH  22  23
ENDBRANCH  20  22
ENDBRANCH   6  20
TORSDOF 3
ENDMDL
MODEL 2
REMARK VINA RESULT:      -5.2     21.451     24.783
REMARK  Name = 6325056_Deoxyelephantopin.pdbqt.pdb
REMARK  3 active torsions:
REMARK  status: ('A' for Active; 'I' for Inactive)
REMARK    1  A    between atoms: C_6  and  O_20
REMARK    2  A    between atoms: O_20  and  C_22
REMARK    3  A    between atoms: C_22  and  C_23
REMARK                            x       y       z     vdW  Elec       q    Type
REMARK                         _______ _______ _______ _____ _____    ______ ____
ROOT
ATOM      1  O   UNL     1     -70.141 -55.628 -37.758  0.00  0.00    +0.000 OA
ATOM      2  O   UNL     1     -68.446 -59.353 -32.681  0.00  0.00    +0.000 OA
ATOM      3  O   UNL     1     -69.866 -55.023 -39.957  0.00  0.00    +0.000 OA
ATOM      4  O   UNL     1     -67.846 -61.146 -34.028  0.00  0.00    +0.000 OA
ATOM      5  C   UNL     1     -68.643 -57.449 -37.659  0.00  0.00    +0.000 C 
ATOM      6  C   UNL     1     -67.911 -58.626 -37.190  0.00  0.00    +0.000 C 
ATOM      7  C   UNL     1     -69.593 -56.622 -36.938  0.00  0.00    +0.000 C 
ATOM      8  C   UNL     1     -67.393 -58.752 -35.874  0.00  0.00    +0.000 C 
ATOM      9  C   UNL     1     -68.632 -56.887 -38.993  0.00  0.00    +0.000 C 
ATOM     10  C   UNL     1     -67.038 -58.908 -34.497  0.00  0.00    +0.000 C 
ATOM     11  C   UNL     1     -69.948 -56.643 -35.568  0.00  0.00    +0.000 C 
ATOM     12  C   UNL     1     -68.207 -57.972 -32.844  0.00  0.00    +0.000 C 
ATOM     13  C   UNL     1     -69.347 -57.222 -33.261  0.00  0.00    +0.000 C 
ATOM     14  C   UNL     1     -70.240 -56.615 -34.173  0.00  0.00    +0.000 C 
ATOM     15  C   UNL     1     -67.058 -57.796 -33.640  0.00  0.00    +0.000 C 
ATOM     16  C   UNL     1     -69.591 -55.751 -39.018  0.00  0.00    +0.000 C 
ATOM     17  C   UNL     1     -67.772 -59.968 -33.727  0.00  0.00    +0.000 C 
ATOM     18  C   UNL     1     -67.848 -57.258 -40.013  0.00  0.00    +0.000 C 
ATOM     19  C   UNL     1     -71.331 -55.728 -33.666  0.00  0.00    +0.000 C 
ENDROOT
BRANCH   6  20
ATOM     20  O   UNL     1     -67.463 -59.586 -38.114  0.00  0.00    +0.000 OA
BRANCH  20  22
ATOM     21  O   UNL     1     -66.973 -61.735 -37.450  0.00  0.00    +0.000 OA
ATOM     22  C   UNL     1     -67.788 -60.890 -37.812  0.00  0.00    +0.000 C 
BRANCH  22  23
ATOM     23  C   UNL     1     -69.271 -61.104 -37.983  0.00  0.00    +0.000 C 
ATOM     24  C   UNL     1     -70.007 -60.810 -39.280  0.00  0.00    +0.000 C 
ATOM     25  C   UNL     1     -70.026 -61.632 -37.012  0.00  0.00    +0.000 C 
ENDBRANCH  22  23
ENDBRANCH  20  22
ENDBRANCH   6  20
TORSDOF 3
ENDMDL
MODEL 3
REMARK VINA RESULT:      -5.1     16.094     19.135
REMARK  Name = 6325056_Deoxyelephantopin.pdbqt.pdb
REMARK  3 active torsions:
REMARK  status: ('A' for Active; 'I' for Inactive)
REMARK    1  A    between atoms: C_6  and  O_20
REMARK    2  A    between atoms: O_20  and  C_22
REMARK    3  A    between atoms: C_22  and  C_23
REMARK                            x       y       z     vdW  Elec       q    Type
REMARK                         _______ _______ _______ _____ _____    ______ ____
ROOT
ATOM      1  O   UNL     1     -55.643 -57.984 -63.494  0.00  0.00    +0.000 OA
ATOM      2  O   UNL     1     -53.198 -57.618 -69.529  0.00  0.00    +0.000 OA
ATOM      3  O   UNL     1     -57.258 -58.745 -62.048  0.00  0.00    +0.000 OA
ATOM      4  O   UNL     1     -54.016 -59.706 -70.128  0.00  0.00    +0.000 OA
ATOM      5  C   UNL     1     -56.334 -59.076 -65.469  0.00  0.00    +0.000 C 
ATOM      6  C   UNL     1     -56.364 -59.589 -66.839  0.00  0.00    +0.000 C 
ATOM      7  C   UNL     1     -55.371 -58.181 -64.854  0.00  0.00    +0.000 C 
ATOM      8  C   UNL     1     -55.991 -58.818 -67.971  0.00  0.00    +0.000 C 
ATOM      9  C   UNL     1     -57.238 -59.414 -64.389  0.00  0.00    +0.000 C 
ATOM     10  C   UNL     1     -55.446 -58.065 -69.059  0.00  0.00    +0.000 C 
ATOM     11  C   UNL     1     -54.305 -57.462 -65.443  0.00  0.00    +0.000 C 
ATOM     12  C   UNL     1     -53.804 -56.580 -68.788  0.00  0.00    +0.000 C 
ATOM     13  C   UNL     1     -53.323 -56.451 -67.452  0.00  0.00    +0.000 C 
ATOM     14  C   UNL     1     -53.285 -56.677 -66.057  0.00  0.00    +0.000 C 
ATOM     15  C   UNL     1     -55.204 -56.692 -68.907  0.00  0.00    +0.000 C 
ATOM     16  C   UNL     1     -56.765 -58.715 -63.163  0.00  0.00    +0.000 C 
ATOM     17  C   UNL     1     -54.179 -58.588 -69.674  0.00  0.00    +0.000 C 
ATOM     18  C   UNL     1     -58.348 -60.155 -64.475  0.00  0.00    +0.000 C 
ATOM     19  C   UNL     1     -52.347 -55.888 -65.202  0.00  0.00    +0.000 C 
ENDROOT
BRANCH   6  20
ATOM     20  O   UNL     1     -57.018 -60.801 -67.118  0.00  0.00    +0.000 OA
BRANCH  20  22
ATOM     21  O   UNL     1     -55.544 -62.162 -68.247  0.00  0.00    +0.000 OA
ATOM     22  C   UNL     1     -56.194 -61.899 -67.238  0.00  0.00    +0.000 C 
BRANCH  22  23
ATOM     23  C   UNL     1     -56.213 -62.699 -65.960  0.00  0.00    +0.000 C 
ATOM     24  C   UNL     1     -55.139 -62.581 -64.891  0.00  0.00    +0.000 C 
ATOM     25  C   UNL     1     -57.221 -63.526 -65.659  0.00  0.00    +0.000 C 
ENDBRANCH  22  23
ENDBRANCH  20  22
ENDBRANCH   6  20
TORSDOF 3
ENDMDL
MODEL 4
REMARK VINA RESULT:      -5.1     11.236     13.113
REMARK  Name = 6325056_Deoxyelephantopin.pdbqt.pdb
REMARK  3 active torsions:
REMARK  status: ('A' for Active; 'I' for Inactive)
REMARK    1  A    between atoms: C_6  and  O_20
REMARK    2  A    between atoms: O_20  and  C_22
REMARK    3  A    between atoms: C_22  and  C_23
REMARK                            x       y       z     vdW  Elec       q    Type
REMARK                         _______ _______ _______ _____ _____    ______ ____
ROOT
ATOM      1  O   UNL     1     -55.470 -57.259 -56.239  0.00  0.00    +0.000 OA
ATOM      2  O   UNL     1     -60.501 -57.269 -60.388  0.00  0.00    +0.000 OA
ATOM      3  O   UNL     1     -54.628 -56.862 -54.139  0.00  0.00    +0.000 OA
ATOM      4  O   UNL     1     -62.051 -57.695 -58.713  0.00  0.00    +0.000 OA
ATOM      5  C   UNL     1     -57.755 -56.827 -55.837  0.00  0.00    +0.000 C 
ATOM      6  C   UNL     1     -59.205 -56.727 -56.009  0.00  0.00    +0.000 C 
ATOM      7  C   UNL     1     -56.748 -57.211 -56.809  0.00  0.00    +0.000 C 
ATOM      8  C   UNL     1     -59.821 -56.255 -57.198  0.00  0.00    +0.000 C 
ATOM      9  C   UNL     1     -57.004 -56.627 -54.615  0.00  0.00    +0.000 C 
ATOM     10  C   UNL     1     -60.399 -55.936 -58.467  0.00  0.00    +0.000 C 
ATOM     11  C   UNL     1     -56.880 -57.447 -58.198  0.00  0.00    +0.000 C 
ATOM     12  C   UNL     1     -59.387 -56.402 -60.399  0.00  0.00    +0.000 C 
ATOM     13  C   UNL     1     -58.127 -57.061 -60.275  0.00  0.00    +0.000 C 
ATOM     14  C   UNL     1     -57.004 -57.603 -59.610  0.00  0.00    +0.000 C 
ATOM     15  C   UNL     1     -59.606 -55.363 -59.473  0.00  0.00    +0.000 C 
ATOM     16  C   UNL     1     -55.574 -56.917 -54.906  0.00  0.00    +0.000 C 
ATOM     17  C   UNL     1     -61.130 -57.043 -59.172  0.00  0.00    +0.000 C 
ATOM     18  C   UNL     1     -57.479 -56.185 -53.446  0.00  0.00    +0.000 C 
ATOM     19  C   UNL     1     -55.837 -58.095 -60.403  0.00  0.00    +0.000 C 
ENDROOT
BRANCH   6  20
ATOM     20  O   UNL     1     -60.052 -56.857 -54.896  0.00  0.00    +0.000 OA
BRANCH  20  22
ATOM     21  O   UNL     1     -60.942 -58.924 -55.379  0.00  0.00    +0.000 OA
ATOM     22  C   UNL     1     -61.090 -57.751 -55.047  0.00  0.00    +0.000 C 
BRANCH  22  23
ATOM     23  C   UNL     1     -62.401 -57.074 -54.739  0.00  0.00    +0.000 C 
ATOM     24  C   UNL     1     -63.096 -56.130 -55.706  0.00  0.00    +0.000 C 
ATOM     25  C   UNL     1     -63.072 -57.315 -53.606  0.00  0.00    +0.000 C 
ENDBRANCH  22  23
ENDBRANCH  20  22
ENDBRANCH   6  20
TORSDOF 3
ENDMDL
MODEL 5
REMARK VINA RESULT:      -5.1     21.584     24.979
REMARK  Name = 6325056_Deoxyelephantopin.pdbqt.pdb
REMARK  3 active torsions:
REMARK  status: ('A' for Active; 'I' for Inactive)
REMARK    1  A    between atoms: C_6  and  O_20
REMARK    2  A    between atoms: O_20  and  C_22
REMARK    3  A    between atoms: C_22  and  C_23
REMARK                            x       y       z     vdW  Elec       q    Type
REMARK                         _______ _______ _______ _____ _____    ______ ____
ROOT
ATOM      1  O   UNL     1     -71.769 -54.979 -34.356  0.00  0.00    +0.000 OA
ATOM      2  O   UNL     1     -67.396 -59.679 -33.207  0.00  0.00    +0.000 OA
ATOM      3  O   UNL     1     -72.853 -53.593 -35.832  0.00  0.00    +0.000 OA
ATOM      4  O   UNL     1     -67.719 -60.668 -35.282  0.00  0.00    +0.000 OA
ATOM      5  C   UNL     1     -70.510 -56.270 -35.878  0.00  0.00    +0.000 C 
ATOM      6  C   UNL     1     -69.644 -57.307 -36.442  0.00  0.00    +0.000 C 
ATOM      7  C   UNL     1     -70.843 -56.021 -34.487  0.00  0.00    +0.000 C 
ATOM      8  C   UNL     1     -68.446 -57.748 -35.822  0.00  0.00    +0.000 C 
ATOM      9  C   UNL     1     -71.292 -55.293 -36.606  0.00  0.00    +0.000 C 
ATOM     10  C   UNL     1     -67.343 -58.280 -35.082  0.00  0.00    +0.000 C 
ATOM     11  C   UNL     1     -70.315 -56.611 -33.315  0.00  0.00    +0.000 C 
ATOM     12  C   UNL     1     -67.299 -58.316 -32.853  0.00  0.00    +0.000 C 
ATOM     13  C   UNL     1     -68.462 -57.787 -32.218  0.00  0.00    +0.000 C 
ATOM     14  C   UNL     1     -69.721 -57.150 -32.136  0.00  0.00    +0.000 C 
ATOM     15  C   UNL     1     -66.847 -57.584 -33.969  0.00  0.00    +0.000 C 
ATOM     16  C   UNL     1     -72.076 -54.507 -35.615  0.00  0.00    +0.000 C 
ATOM     17  C   UNL     1     -67.478 -59.693 -34.592  0.00  0.00    +0.000 C 
ATOM     18  C   UNL     1     -71.269 -55.069 -37.924  0.00  0.00    +0.000 C 
ATOM     19  C   UNL     1     -70.295 -56.809 -30.799  0.00  0.00    +0.000 C 
ENDROOT
BRANCH   6  20
ATOM     20  O   UNL     1     -69.835 -57.733 -37.768  0.00  0.00    +0.000 OA
BRANCH  20  22
ATOM     21  O   UNL     1     -68.002 -58.883 -38.551  0.00  0.00    +0.000 OA
ATOM     22  C   UNL     1     -68.685 -57.863 -38.515  0.00  0.00    +0.000 C 
BRANCH  22  23
ATOM     23  C   UNL     1     -68.414 -56.586 -39.270  0.00  0.00    +0.000 C 
ATOM     24  C   UNL     1     -67.517 -55.481 -38.737  0.00  0.00    +0.000 C 
ATOM     25  C   UNL     1     -68.904 -56.373 -40.498  0.00  0.00    +0.000 C 
ENDBRANCH  22  23
ENDBRANCH  20  22
ENDBRANCH   6  20
TORSDOF 3
ENDMDL
MODEL 6
REMARK VINA RESULT:      -5.0     23.625     27.032
REMARK  Name = 6325056_Deoxyelephantopin.pdbqt.pdb
REMARK  3 active torsions:
REMARK  status: ('A' for Active; 'I' for Inactive)
REMARK    1  A    between atoms: C_6  and  O_20
REMARK    2  A    between atoms: O_20  and  C_22
REMARK    3  A    between atoms: C_22  and  C_23
REMARK                            x       y       z     vdW  Elec       q    Type
REMARK                         _______ _______ _______ _____ _____    ______ ____
ROOT
ATOM      1  O   UNL     1     -69.370 -56.450 -36.590  0.00  0.00    +0.000 OA
ATOM      2  O   UNL     1     -72.115 -56.194 -30.680  0.00  0.00    +0.000 OA
ATOM      3  O   UNL     1     -67.765 -57.295 -37.999  0.00  0.00    +0.000 OA
ATOM      4  O   UNL     1     -71.567 -58.395 -30.185  0.00  0.00    +0.000 OA
ATOM      5  C   UNL     1     -68.921 -57.736 -34.663  0.00  0.00    +0.000 C 
ATOM      6  C   UNL     1     -69.028 -58.335 -33.331  0.00  0.00    +0.000 C 
ATOM      7  C   UNL     1     -69.743 -56.702 -35.263  0.00  0.00    +0.000 C 
ATOM      8  C   UNL     1     -69.382 -57.600 -32.170  0.00  0.00    +0.000 C 
ATOM      9  C   UNL     1     -67.997 -58.105 -35.715  0.00  0.00    +0.000 C 
ATOM     10  C   UNL     1     -69.905 -56.861 -31.061  0.00  0.00    +0.000 C 
ATOM     11  C   UNL     1     -70.757 -55.906 -34.681  0.00  0.00    +0.000 C 
ATOM     12  C   UNL     1     -71.356 -55.187 -31.313  0.00  0.00    +0.000 C 
ATOM     13  C   UNL     1     -71.740 -54.919 -32.661  0.00  0.00    +0.000 C 
ATOM     14  C   UNL     1     -71.720 -55.051 -34.068  0.00  0.00    +0.000 C 
ATOM     15  C   UNL     1     -69.986 -55.462 -31.130  0.00  0.00    +0.000 C 
ATOM     16  C   UNL     1     -68.317 -57.281 -36.912  0.00  0.00    +0.000 C 
ATOM     17  C   UNL     1     -71.255 -57.276 -30.552  0.00  0.00    +0.000 C 
ATOM     18  C   UNL     1     -66.981 -58.970 -35.623  0.00  0.00    +0.000 C 
ATOM     19  C   UNL     1     -72.514 -54.109 -34.914  0.00  0.00    +0.000 C 
ENDROOT
BRANCH   6  20
ATOM     20  O   UNL     1     -68.529 -59.629 -33.104  0.00  0.00    +0.000 OA
BRANCH  20  22
ATOM     21  O   UNL     1     -70.241 -60.907 -32.248  0.00  0.00    +0.000 OA
ATOM     22  C   UNL     1     -69.464 -60.639 -33.161  0.00  0.00    +0.000 C 
BRANCH  22  23
ATOM     23  C   UNL     1     -69.386 -61.337 -34.495  0.00  0.00    +0.000 C 
ATOM     24  C   UNL     1     -68.310 -62.355 -34.837  0.00  0.00    +0.000 C 
ATOM     25  C   UNL     1     -70.308 -61.148 -35.447  0.00  0.00    +0.000 C 
ENDBRANCH  22  23
ENDBRANCH  20  22
ENDBRANCH   6  20
TORSDOF 3
ENDMDL
MODEL 7
REMARK VINA RESULT:      -4.9     22.743     26.406
REMARK  Name = 6325056_Deoxyelephantopin.pdbqt.pdb
REMARK  3 active torsions:
REMARK  status: ('A' for Active; 'I' for Inactive)
REMARK    1  A    between atoms: C_6  and  O_20
REMARK    2  A    between atoms: O_20  and  C_22
REMARK    3  A    between atoms: C_22  and  C_23
REMARK                            x       y       z     vdW  Elec       q    Type
REMARK                         _______ _______ _______ _____ _____    ______ ____
ROOT
ATOM      1  O   UNL     1     -70.969 -55.159 -36.428  0.00  0.00    +0.000 OA
ATOM      2  O   UNL     1     -67.092 -60.382 -35.960  0.00  0.00    +0.000 OA
ATOM      3  O   UNL     1     -72.708 -53.897 -35.616  0.00  0.00    +0.000 OA
ATOM      4  O   UNL     1     -67.221 -60.434 -33.642  0.00  0.00    +0.000 OA
ATOM      5  C   UNL     1     -70.822 -56.778 -34.717  0.00  0.00    +0.000 C 
ATOM      6  C   UNL     1     -70.355 -57.890 -33.888  0.00  0.00    +0.000 C 
ATOM      7  C   UNL     1     -70.293 -56.302 -35.982  0.00  0.00    +0.000 C 
ATOM      8  C   UNL     1     -69.865 -59.111 -34.422  0.00  0.00    +0.000 C 
ATOM      9  C   UNL     1     -71.890 -55.849 -34.412  0.00  0.00    +0.000 C 
ATOM     10  C   UNL     1     -69.223 -60.251 -35.000  0.00  0.00    +0.000 C 
ATOM     11  C   UNL     1     -69.295 -56.866 -36.811  0.00  0.00    +0.000 C 
ATOM     12  C   UNL     1     -68.097 -60.148 -36.923  0.00  0.00    +0.000 C 
ATOM     13  C   UNL     1     -68.047 -58.855 -37.524  0.00  0.00    +0.000 C 
ATOM     14  C   UNL     1     -68.348 -57.482 -37.680  0.00  0.00    +0.000 C 
ATOM     15  C   UNL     1     -69.347 -60.501 -36.375  0.00  0.00    +0.000 C 
ATOM     16  C   UNL     1     -71.945 -54.842 -35.506  0.00  0.00    +0.000 C 
ATOM     17  C   UNL     1     -67.751 -60.402 -34.739  0.00  0.00    +0.000 C 
ATOM     18  C   UNL     1     -72.737 -55.913 -33.378  0.00  0.00    +0.000 C 
ATOM     19  C   UNL     1     -67.886 -56.756 -38.902  0.00  0.00    +0.000 C 
ENDROOT
BRANCH   6  20
ATOM     20  O   UNL     1     -70.615 -57.892 -32.507  0.00  0.00    +0.000 OA
BRANCH  20  22
ATOM     21  O   UNL     1     -68.437 -57.588 -31.830  0.00  0.00    +0.000 OA
ATOM     22  C   UNL     1     -69.633 -57.329 -31.722  0.00  0.00    +0.000 C 
BRANCH  22  23
ATOM     23  C   UNL     1     -70.247 -56.362 -30.742  0.00  0.00    +0.000 C 
ATOM     24  C   UNL     1     -71.038 -56.806 -29.523  0.00  0.00    +0.000 C 
ATOM     25  C   UNL     1     -70.076 -55.038 -30.854  0.00  0.00    +0.000 C 
ENDBRANCH  22  23
ENDBRANCH  20  22
ENDBRANCH   6  20
TORSDOF 3
ENDMDL
MODEL 8
REMARK VINA RESULT:      -4.9     37.713     41.344
REMARK  Name = 6325056_Deoxyelephantopin.pdbqt.pdb
REMARK  3 active torsions:
REMARK  status: ('A' for Active; 'I' for Inactive)
REMARK    1  A    between atoms: C_6  and  O_20
REMARK    2  A    between atoms: O_20  and  C_22
REMARK    3  A    between atoms: C_22  and  C_23
REMARK                            x       y       z     vdW  Elec       q    Type
REMARK                         _______ _______ _______ _____ _____    ______ ____
ROOT
ATOM      1  O   UNL     1     -64.517 -55.132 -13.996  0.00  0.00    +0.000 OA
ATOM      2  O   UNL     1     -65.265 -50.600 -18.625  0.00  0.00    +0.000 OA
ATOM      3  O   UNL     1     -63.818 -57.225 -13.361  0.00  0.00    +0.000 OA
ATOM      4  O   UNL     1     -63.396 -51.309 -19.805  0.00  0.00    +0.000 OA
ATOM      5  C   UNL     1     -63.775 -55.130 -16.236  0.00  0.00    +0.000 C 
ATOM      6  C   UNL     1     -63.440 -54.692 -17.592  0.00  0.00    +0.000 C 
ATOM      7  C   UNL     1     -64.449 -54.392 -15.183  0.00  0.00    +0.000 C 
ATOM      8  C   UNL     1     -64.282 -53.862 -18.376  0.00  0.00    +0.000 C 
ATOM      9  C   UNL     1     -63.438 -56.394 -15.617  0.00  0.00    +0.000 C 
ATOM     10  C   UNL     1     -65.078 -52.891 -19.063  0.00  0.00    +0.000 C 
ATOM     11  C   UNL     1     -65.080 -53.127 -15.231  0.00  0.00    +0.000 C 
ATOM     12  C   UNL     1     -66.280 -51.348 -17.990  0.00  0.00    +0.000 C 
ATOM     13  C   UNL     1     -66.180 -51.388 -16.568  0.00  0.00    +0.000 C 
ATOM     14  C   UNL     1     -65.785 -51.890 -15.307  0.00  0.00    +0.000 C 
ATOM     15  C   UNL     1     -66.377 -52.608 -18.615  0.00  0.00    +0.000 C 
ATOM     16  C   UNL     1     -63.912 -56.354 -14.208  0.00  0.00    +0.000 C 
ATOM     17  C   UNL     1     -64.464 -51.535 -19.264  0.00  0.00    +0.000 C 
ATOM     18  C   UNL     1     -62.872 -57.452 -16.211  0.00  0.00    +0.000 C 
ATOM     19  C   UNL     1     -66.330 -51.274 -14.059  0.00  0.00    +0.000 C 
ENDROOT
BRANCH   6  20
ATOM     20  O   UNL     1     -62.371 -55.294 -18.277  0.00  0.00    +0.000 OA
BRANCH  20  22
ATOM     21  O   UNL     1     -60.831 -53.609 -17.981  0.00  0.00    +0.000 OA
ATOM     22  C   UNL     1     -61.386 -54.431 -18.706  0.00  0.00    +0.000 C 
BRANCH  22  23
ATOM     23  C   UNL     1     -61.102 -54.660 -20.169  0.00  0.00    +0.000 C 
ATOM     24  C   UNL     1     -62.040 -54.210 -21.277  0.00  0.00    +0.000 C 
ATOM     25  C   UNL     1     -59.962 -55.224 -20.588  0.00  0.00    +0.000 C 
ENDBRANCH  22  23
ENDBRANCH  20  22
ENDBRANCH   6  20
TORSDOF 3
ENDMDL
MODEL 9
REMARK VINA RESULT:      -4.9     18.953     22.479
REMARK  Name = 6325056_Deoxyelephantopin.pdbqt.pdb
REMARK  3 active torsions:
REMARK  status: ('A' for Active; 'I' for Inactive)
REMARK    1  A    between atoms: C_6  and  O_20
REMARK    2  A    between atoms: O_20  and  C_22
REMARK    3  A    between atoms: C_22  and  C_23
REMARK                            x       y       z     vdW  Elec       q    Type
REMARK                         _______ _______ _______ _____ _____    ______ ____
ROOT
ATOM      1  O   UNL     1     -63.157 -45.628 -33.814  0.00  0.00    +0.000 OA
ATOM      2  O   UNL     1     -68.975 -48.526 -33.291  0.00  0.00    +0.000 OA
ATOM      3  O   UNL     1     -61.227 -45.248 -35.000  0.00  0.00    +0.000 OA
ATOM      4  O   UNL     1     -69.327 -48.529 -35.586  0.00  0.00    +0.000 OA
ATOM      5  C   UNL     1     -64.338 -46.931 -35.388  0.00  0.00    +0.000 C 
ATOM      6  C   UNL     1     -65.403 -47.678 -36.059  0.00  0.00    +0.000 C 
ATOM      7  C   UNL     1     -64.345 -46.325 -34.069  0.00  0.00    +0.000 C 
ATOM      8  C   UNL     1     -66.277 -48.570 -35.385  0.00  0.00    +0.000 C 
ATOM      9  C   UNL     1     -63.047 -46.569 -35.934  0.00  0.00    +0.000 C 
ATOM     10  C   UNL     1     -67.239 -49.324 -34.643  0.00  0.00    +0.000 C 
ATOM     11  C   UNL     1     -65.312 -46.416 -33.041  0.00  0.00    +0.000 C 
ATOM     12  C   UNL     1     -67.810 -48.811 -32.548  0.00  0.00    +0.000 C 
ATOM     13  C   UNL     1     -67.158 -47.661 -32.011  0.00  0.00    +0.000 C 
ATOM     14  C   UNL     1     -66.250 -46.578 -31.979  0.00  0.00    +0.000 C 
ATOM     15  C   UNL     1     -66.981 -49.663 -33.305  0.00  0.00    +0.000 C 
ATOM     16  C   UNL     1     -62.338 -45.743 -34.919  0.00  0.00    +0.000 C 
ATOM     17  C   UNL     1     -68.641 -48.786 -34.613  0.00  0.00    +0.000 C 
ATOM     18  C   UNL     1     -62.532 -46.961 -37.105  0.00  0.00    +0.000 C 
ATOM     19  C   UNL     1     -66.094 -45.776 -30.728  0.00  0.00    +0.000 C 
ENDROOT
BRANCH   6  20
ATOM     20  O   UNL     1     -65.439 -47.735 -37.463  0.00  0.00    +0.000 OA
BRANCH  20  22
ATOM     21  O   UNL     1     -67.162 -46.210 -37.442  0.00  0.00    +0.000 OA
ATOM     22  C   UNL     1     -66.387 -46.935 -38.061  0.00  0.00    +0.000 C 
BRANCH  22  23
ATOM     23  C   UNL     1     -66.316 -47.082 -39.560  0.00  0.00    +0.000 C 
ATOM     24  C   UNL     1     -67.532 -46.964 -40.464  0.00  0.00    +0.000 C 
ATOM     25  C   UNL     1     -65.153 -47.267 -40.197  0.00  0.00    +0.000 C 
ENDBRANCH  22  23
ENDBRANCH  20  22
ENDBRANCH   6  20
TORSDOF 3
ENDMDL
