MODEL 1
REMARK VINA RESULT:      -5.5      0.000      0.000
REMARK  Name = 641785_Cardamonin.pdbqt.pdb
REMARK  6 active torsions:
REMARK  status: ('A' for Active; 'I' for Inactive)
REMARK    1  A    between atoms: C_1  and  C_14
REMARK    2  A    between atoms: C_2  and  O_7
REMARK    3  A    between atoms: C_3  and  O_9
REMARK    4  A    between atoms: C_6  and  O_11
REMARK    5  A    between atoms: C_14  and  C_15
REMARK    6  A    between atoms: C_16  and  C_17
REMARK                            x       y       z     vdW  Elec       q    Type
REMARK                         _______ _______ _______ _____ _____    ______ ____
ROOT
ATOM      1  C   UNL     1     -63.261 -46.409 -58.010  0.00  0.00    +0.000 A 
ATOM      2  C   UNL     1     -64.313 -46.633 -58.919  0.00  0.00    +0.000 A 
ATOM      3  C   UNL     1     -61.940 -46.350 -58.500  0.00  0.00    +0.000 A 
ATOM      4  C   UNL     1     -64.017 -46.817 -60.278  0.00  0.00    +0.000 A 
ATOM      5  C   UNL     1     -61.663 -46.546 -59.853  0.00  0.00    +0.000 A 
ATOM      6  C   UNL     1     -62.706 -46.785 -60.733  0.00  0.00    +0.000 A 
ENDROOT
BRANCH   2   7
ATOM      7  O   UNL     1     -65.610 -46.589 -58.463  0.00  0.00    +0.000 OA
ATOM      8  C   UNL     1     -66.381 -47.735 -58.691  0.00  0.00    +0.000 C 
ENDBRANCH   2   7
BRANCH   3   9
ATOM      9  O   UNL     1     -60.847 -46.106 -57.708  0.00  0.00    +0.000 OA
ATOM     10  H   UNL     1     -61.139 -45.734 -56.847  0.00  0.00    +0.000 HD
ENDBRANCH   3   9
BRANCH   6  11
ATOM     11  O   UNL     1     -62.420 -46.975 -62.051  0.00  0.00    +0.000 OA
ATOM     12  H   UNL     1     -62.102 -47.887 -62.176  0.00  0.00    +0.000 HD
ENDBRANCH   6  11
BRANCH   1  14
ATOM     13  O   UNL     1     -63.158 -45.167 -56.012  0.00  0.00    +0.000 OA
ATOM     14  C   UNL     1     -63.465 -46.225 -56.550  0.00  0.00    +0.000 C 
BRANCH  14  15
ATOM     15  C   UNL     1     -63.954 -47.309 -55.736  0.00  0.00    +0.000 C 
ATOM     16  C   UNL     1     -64.362 -48.225 -55.072  0.00  0.00    +0.000 C 
BRANCH  16  17
ATOM     17  C   UNL     1     -64.848 -49.306 -54.279  0.00  0.00    +0.000 A 
ATOM     18  C   UNL     1     -66.164 -49.740 -54.429  0.00  0.00    +0.000 A 
ATOM     19  C   UNL     1     -64.008 -49.925 -53.356  0.00  0.00    +0.000 A 
ATOM     20  C   UNL     1     -66.640 -50.795 -53.654  0.00  0.00    +0.000 A 
ATOM     21  C   UNL     1     -64.485 -50.980 -52.581  0.00  0.00    +0.000 A 
ATOM     22  C   UNL     1     -65.800 -51.414 -52.731  0.00  0.00    +0.000 A 
ENDBRANCH  16  17
ENDBRANCH  14  15
ENDBRANCH   1  14
TORSDOF 6
ENDMDL
MODEL 2
REMARK VINA RESULT:      -5.3     24.596     26.498
REMARK  Name = 641785_Cardamonin.pdbqt.pdb
REMARK  6 active torsions:
REMARK  status: ('A' for Active; 'I' for Inactive)
REMARK    1  A    between atoms: C_1  and  C_14
REMARK    2  A    between atoms: C_2  and  O_7
REMARK    3  A    between atoms: C_3  and  O_9
REMARK    4  A    between atoms: C_6  and  O_11
REMARK    5  A    between atoms: C_14  and  C_15
REMARK    6  A    between atoms: C_16  and  C_17
REMARK                            x       y       z     vdW  Elec       q    Type
REMARK                         _______ _______ _______ _____ _____    ______ ____
ROOT
ATOM      1  C   UNL     1     -56.713 -66.069 -72.798  0.00  0.00    +0.000 A 
ATOM      2  C   UNL     1     -56.505 -67.331 -73.388  0.00  0.00    +0.000 A 
ATOM      3  C   UNL     1     -57.984 -65.470 -72.907  0.00  0.00    +0.000 A 
ATOM      4  C   UNL     1     -57.556 -67.943 -74.086  0.00  0.00    +0.000 A 
ATOM      5  C   UNL     1     -59.015 -66.088 -73.614  0.00  0.00    +0.000 A 
ATOM      6  C   UNL     1     -58.792 -67.320 -74.205  0.00  0.00    +0.000 A 
ENDROOT
BRANCH   2   7
ATOM      7  O   UNL     1     -55.300 -67.967 -73.197  0.00  0.00    +0.000 OA
ATOM      8  C   UNL     1     -55.151 -69.205 -73.834  0.00  0.00    +0.000 C 
ENDBRANCH   2   7
BRANCH   3   9
ATOM      9  O   UNL     1     -58.303 -64.260 -72.344  0.00  0.00    +0.000 OA
ATOM     10  H   UNL     1     -59.073 -63.869 -72.814  0.00  0.00    +0.000 HD
ENDBRANCH   3   9
BRANCH   6  11
ATOM     11  O   UNL     1     -59.807 -67.911 -74.894  0.00  0.00    +0.000 OA
ATOM     12  H   UNL     1     -60.275 -68.524 -74.299  0.00  0.00    +0.000 HD
ENDBRANCH   6  11
BRANCH   1  14
ATOM     13  O   UNL     1     -55.697 -65.259 -70.834  0.00  0.00    +0.000 OA
ATOM     14  C   UNL     1     -55.660 -65.327 -72.058  0.00  0.00    +0.000 C 
BRANCH  14  15
ATOM     15  C   UNL     1     -54.626 -64.617 -72.768  0.00  0.00    +0.000 C 
ATOM     16  C   UNL     1     -53.753 -64.040 -73.361  0.00  0.00    +0.000 C 
BRANCH  16  17
ATOM     17  C   UNL     1     -52.721 -63.350 -74.062  0.00  0.00    +0.000 A 
ATOM     18  C   UNL     1     -52.636 -63.452 -75.449  0.00  0.00    +0.000 A 
ATOM     19  C   UNL     1     -51.800 -62.577 -73.359  0.00  0.00    +0.000 A 
ATOM     20  C   UNL     1     -51.627 -62.779 -76.134  0.00  0.00    +0.000 A 
ATOM     21  C   UNL     1     -50.791 -61.904 -74.046  0.00  0.00    +0.000 A 
ATOM     22  C   UNL     1     -50.705 -62.006 -75.432  0.00  0.00    +0.000 A 
ENDBRANCH  16  17
ENDBRANCH  14  15
ENDBRANCH   1  14
TORSDOF 6
ENDMDL
MODEL 3
REMARK VINA RESULT:      -5.2     20.966     23.497
REMARK  Name = 641785_Cardamonin.pdbqt.pdb
REMARK  6 active torsions:
REMARK  status: ('A' for Active; 'I' for Inactive)
REMARK    1  A    between atoms: C_1  and  C_14
REMARK    2  A    between atoms: C_2  and  O_7
REMARK    3  A    between atoms: C_3  and  O_9
REMARK    4  A    between atoms: C_6  and  O_11
REMARK    5  A    between atoms: C_14  and  C_15
REMARK    6  A    between atoms: C_16  and  C_17
REMARK                            x       y       z     vdW  Elec       q    Type
REMARK                         _______ _______ _______ _____ _____    ______ ____
ROOT
ATOM      1  C   UNL     1     -63.815 -60.406 -78.466  0.00  0.00    +0.000 A 
ATOM      2  C   UNL     1     -64.243 -59.112 -78.820  0.00  0.00    +0.000 A 
ATOM      3  C   UNL     1     -62.524 -60.823 -78.848  0.00  0.00    +0.000 A 
ATOM      4  C   UNL     1     -63.385 -58.285 -79.562  0.00  0.00    +0.000 A 
ATOM      5  C   UNL     1     -61.688 -59.993 -79.594  0.00  0.00    +0.000 A 
ATOM      6  C   UNL     1     -62.128 -58.729 -79.952  0.00  0.00    +0.000 A 
ENDROOT
BRANCH   2   7
ATOM      7  O   UNL     1     -65.460 -58.662 -78.364  0.00  0.00    +0.000 OA
ATOM      8  C   UNL     1     -66.023 -57.592 -79.069  0.00  0.00    +0.000 C 
ENDBRANCH   2   7
BRANCH   3   9
ATOM      9  O   UNL     1     -61.997 -62.049 -78.527  0.00  0.00    +0.000 OA
ATOM     10  H   UNL     1     -62.725 -62.688 -78.361  0.00  0.00    +0.000 HD
ENDBRANCH   3   9
BRANCH   6  11
ATOM     11  O   UNL     1     -61.302 -57.929 -80.682  0.00  0.00    +0.000 OA
ATOM     12  H   UNL     1     -61.842 -57.286 -81.175  0.00  0.00    +0.000 HD
ENDBRANCH   6  11
BRANCH   1  14
ATOM     13  O   UNL     1     -65.198 -62.303 -78.276  0.00  0.00    +0.000 OA
ATOM     14  C   UNL     1     -64.654 -61.365 -77.703  0.00  0.00    +0.000 C 
BRANCH  14  15
ATOM     15  C   UNL     1     -64.901 -61.165 -76.296  0.00  0.00    +0.000 C 
ATOM     16  C   UNL     1     -65.115 -61.016 -75.123  0.00  0.00    +0.000 C 
BRANCH  16  17
ATOM     17  C   UNL     1     -65.367 -60.833 -73.731  0.00  0.00    +0.000 A 
ATOM     18  C   UNL     1     -64.513 -61.404 -72.790  0.00  0.00    +0.000 A 
ATOM     19  C   UNL     1     -66.466 -60.085 -73.316  0.00  0.00    +0.000 A 
ATOM     20  C   UNL     1     -64.760 -61.227 -71.430  0.00  0.00    +0.000 A 
ATOM     21  C   UNL     1     -66.712 -59.908 -71.956  0.00  0.00    +0.000 A 
ATOM     22  C   UNL     1     -65.859 -60.479 -71.015  0.00  0.00    +0.000 A 
ENDBRANCH  16  17
ENDBRANCH  14  15
ENDBRANCH   1  14
TORSDOF 6
ENDMDL
MODEL 4
REMARK VINA RESULT:      -5.2     19.428     23.990
REMARK  Name = 641785_Cardamonin.pdbqt.pdb
REMARK  6 active torsions:
REMARK  status: ('A' for Active; 'I' for Inactive)
REMARK    1  A    between atoms: C_1  and  C_14
REMARK    2  A    between atoms: C_2  and  O_7
REMARK    3  A    between atoms: C_3  and  O_9
REMARK    4  A    between atoms: C_6  and  O_11
REMARK    5  A    between atoms: C_14  and  C_15
REMARK    6  A    between atoms: C_16  and  C_17
REMARK                            x       y       z     vdW  Elec       q    Type
REMARK                         _______ _______ _______ _____ _____    ______ ____
ROOT
ATOM      1  C   UNL     1     -68.902 -57.859 -34.702  0.00  0.00    +0.000 A 
ATOM      2  C   UNL     1     -69.825 -56.816 -34.495  0.00  0.00    +0.000 A 
ATOM      3  C   UNL     1     -68.188 -58.363 -33.596  0.00  0.00    +0.000 A 
ATOM      4  C   UNL     1     -69.990 -56.291 -33.205  0.00  0.00    +0.000 A 
ATOM      5  C   UNL     1     -68.356 -57.823 -32.321  0.00  0.00    +0.000 A 
ATOM      6  C   UNL     1     -69.253 -56.784 -32.135  0.00  0.00    +0.000 A 
ENDROOT
BRANCH   2   7
ATOM      7  O   UNL     1     -70.599 -56.390 -35.550  0.00  0.00    +0.000 OA
ATOM      8  C   UNL     1     -71.558 -55.414 -35.254  0.00  0.00    +0.000 C 
ENDBRANCH   2   7
BRANCH   3   9
ATOM      9  O   UNL     1     -67.289 -59.396 -33.680  0.00  0.00    +0.000 OA
ATOM     10  H   UNL     1     -67.041 -59.543 -34.619  0.00  0.00    +0.000 HD
ENDBRANCH   3   9
BRANCH   6  11
ATOM     11  O   UNL     1     -69.407 -56.266 -30.885  0.00  0.00    +0.000 OA
ATOM     12  H   UNL     1     -68.837 -55.481 -30.798  0.00  0.00    +0.000 HD
ENDBRANCH   6  11
BRANCH   1  14
ATOM     13  O   UNL     1     -68.702 -59.682 -36.179  0.00  0.00    +0.000 OA
ATOM     14  C   UNL     1     -68.637 -58.467 -36.031  0.00  0.00    +0.000 C 
BRANCH  14  15
ATOM     15  C   UNL     1     -68.228 -57.647 -37.144  0.00  0.00    +0.000 C 
ATOM     16  C   UNL     1     -67.897 -56.975 -38.084  0.00  0.00    +0.000 C 
BRANCH  16  17
ATOM     17  C   UNL     1     -67.499 -56.174 -39.195  0.00  0.00    +0.000 A 
ATOM     18  C   UNL     1     -67.359 -54.795 -39.042  0.00  0.00    +0.000 A 
ATOM     19  C   UNL     1     -67.253 -56.769 -40.429  0.00  0.00    +0.000 A 
ATOM     20  C   UNL     1     -66.973 -54.012 -40.127  0.00  0.00    +0.000 A 
ATOM     21  C   UNL     1     -66.866 -55.985 -41.514  0.00  0.00    +0.000 A 
ATOM     22  C   UNL     1     -66.726 -54.608 -41.362  0.00  0.00    +0.000 A 
ENDBRANCH  16  17
ENDBRANCH  14  15
ENDBRANCH   1  14
TORSDOF 6
ENDMDL
MODEL 5
REMARK VINA RESULT:      -5.1      0.601      2.429
REMARK  Name = 641785_Cardamonin.pdbqt.pdb
REMARK  6 active torsions:
REMARK  status: ('A' for Active; 'I' for Inactive)
REMARK    1  A    between atoms: C_1  and  C_14
REMARK    2  A    between atoms: C_2  and  O_7
REMARK    3  A    between atoms: C_3  and  O_9
REMARK    4  A    between atoms: C_6  and  O_11
REMARK    5  A    between atoms: C_14  and  C_15
REMARK    6  A    between atoms: C_16  and  C_17
REMARK                            x       y       z     vdW  Elec       q    Type
REMARK                         _______ _______ _______ _____ _____    ______ ____
ROOT
ATOM      1  C   UNL     1     -63.231 -46.307 -58.075  0.00  0.00    +0.000 A 
ATOM      2  C   UNL     1     -61.914 -46.141 -58.544  0.00  0.00    +0.000 A 
ATOM      3  C   UNL     1     -64.228 -46.723 -58.981  0.00  0.00    +0.000 A 
ATOM      4  C   UNL     1     -61.635 -46.369 -59.900  0.00  0.00    +0.000 A 
ATOM      5  C   UNL     1     -63.936 -46.934 -60.327  0.00  0.00    +0.000 A 
ATOM      6  C   UNL     1     -62.640 -46.749 -60.780  0.00  0.00    +0.000 A 
ENDROOT
BRANCH   2   7
ATOM      7  O   UNL     1     -60.917 -45.836 -57.646  0.00  0.00    +0.000 OA
ATOM      8  C   UNL     1     -60.347 -44.563 -57.770  0.00  0.00    +0.000 C 
ENDBRANCH   2   7
BRANCH   3   9
ATOM      9  O   UNL     1     -65.534 -46.944 -58.622  0.00  0.00    +0.000 OA
ATOM     10  H   UNL     1     -65.564 -47.482 -57.800  0.00  0.00    +0.000 HD
ENDBRANCH   3   9
BRANCH   6  11
ATOM     11  O   UNL     1     -62.370 -46.959 -62.099  0.00  0.00    +0.000 OA
ATOM     12  H   UNL     1     -62.634 -46.169 -62.603  0.00  0.00    +0.000 HD
ENDBRANCH   6  11
BRANCH   1  14
ATOM     13  O   UNL     1     -63.543 -44.949 -56.176  0.00  0.00    +0.000 OA
ATOM     14  C   UNL     1     -63.633 -46.070 -56.665  0.00  0.00    +0.000 C 
BRANCH  14  15
ATOM     15  C   UNL     1     -64.064 -47.165 -55.831  0.00  0.00    +0.000 C 
ATOM     16  C   UNL     1     -64.405 -48.083 -55.134  0.00  0.00    +0.000 C 
BRANCH  16  17
ATOM     17  C   UNL     1     -64.816 -49.171 -54.309  0.00  0.00    +0.000 A 
ATOM     18  C   UNL     1     -66.098 -49.700 -54.445  0.00  0.00    +0.000 A 
ATOM     19  C   UNL     1     -63.937 -49.701 -53.367  0.00  0.00    +0.000 A 
ATOM     20  C   UNL     1     -66.501 -50.762 -53.638  0.00  0.00    +0.000 A 
ATOM     21  C   UNL     1     -64.340 -50.763 -52.561  0.00  0.00    +0.000 A 
ATOM     22  C   UNL     1     -65.622 -51.292 -52.697  0.00  0.00    +0.000 A 
ENDBRANCH  16  17
ENDBRANCH  14  15
ENDBRANCH   1  14
TORSDOF 6
ENDMDL
MODEL 6
REMARK VINA RESULT:      -5.1     40.263     43.842
REMARK  Name = 641785_Cardamonin.pdbqt.pdb
REMARK  6 active torsions:
REMARK  status: ('A' for Active; 'I' for Inactive)
REMARK    1  A    between atoms: C_1  and  C_14
REMARK    2  A    between atoms: C_2  and  O_7
REMARK    3  A    between atoms: C_3  and  O_9
REMARK    4  A    between atoms: C_6  and  O_11
REMARK    5  A    between atoms: C_14  and  C_15
REMARK    6  A    between atoms: C_16  and  C_17
REMARK                            x       y       z     vdW  Elec       q    Type
REMARK                         _______ _______ _______ _____ _____    ______ ____
ROOT
ATOM      1  C   UNL     1     -64.359 -58.648 -13.524  0.00  0.00    +0.000 A 
ATOM      2  C   UNL     1     -64.651 -59.501 -14.606  0.00  0.00    +0.000 A 
ATOM      3  C   UNL     1     -64.787 -59.016 -12.233  0.00  0.00    +0.000 A 
ATOM      4  C   UNL     1     -65.379 -60.677 -14.374  0.00  0.00    +0.000 A 
ATOM      5  C   UNL     1     -65.520 -60.184 -12.022  0.00  0.00    +0.000 A 
ATOM      6  C   UNL     1     -65.817 -61.005 -13.097  0.00  0.00    +0.000 A 
ENDROOT
BRANCH   2   7
ATOM      7  O   UNL     1     -64.147 -59.199 -15.850  0.00  0.00    +0.000 OA
ATOM      8  C   UNL     1     -63.026 -59.933 -16.254  0.00  0.00    +0.000 C 
ENDBRANCH   2   7
BRANCH   3   9
ATOM      9  O   UNL     1     -64.529 -58.275 -11.107  0.00  0.00    +0.000 OA
ATOM     10  H   UNL     1     -64.433 -58.872 -10.333  0.00  0.00    +0.000 HD
ENDBRANCH   3   9
BRANCH   6  11
ATOM     11  O   UNL     1     -66.534 -62.141 -12.876  0.00  0.00    +0.000 OA
ATOM     12  H   UNL     1     -65.943 -62.910 -12.973  0.00  0.00    +0.000 HD
ENDBRANCH   6  11
BRANCH   1  14
ATOM     13  O   UNL     1     -62.553 -57.203 -13.075  0.00  0.00    +0.000 OA
ATOM     14  C   UNL     1     -63.614 -57.370 -13.667  0.00  0.00    +0.000 C 
BRANCH  14  15
ATOM     15  C   UNL     1     -64.164 -56.284 -14.440  0.00  0.00    +0.000 C 
ATOM     16  C   UNL     1     -64.618 -55.366 -15.070  0.00  0.00    +0.000 C 
BRANCH  16  17
ATOM     17  C   UNL     1     -65.159 -54.282 -15.822  0.00  0.00    +0.000 A 
ATOM     18  C   UNL     1     -65.550 -53.113 -15.172  0.00  0.00    +0.000 A 
ATOM     19  C   UNL     1     -65.298 -54.394 -17.203  0.00  0.00    +0.000 A 
ATOM     20  C   UNL     1     -66.081 -52.054 -15.905  0.00  0.00    +0.000 A 
ATOM     21  C   UNL     1     -65.829 -53.335 -17.936  0.00  0.00    +0.000 A 
ATOM     22  C   UNL     1     -66.220 -52.166 -17.287  0.00  0.00    +0.000 A 
ENDBRANCH  16  17
ENDBRANCH  14  15
ENDBRANCH   1  14
TORSDOF 6
ENDMDL
MODEL 7
REMARK VINA RESULT:      -5.0     19.798     22.851
REMARK  Name = 641785_Cardamonin.pdbqt.pdb
REMARK  6 active torsions:
REMARK  status: ('A' for Active; 'I' for Inactive)
REMARK    1  A    between atoms: C_1  and  C_14
REMARK    2  A    between atoms: C_2  and  O_7
REMARK    3  A    between atoms: C_3  and  O_9
REMARK    4  A    between atoms: C_6  and  O_11
REMARK    5  A    between atoms: C_14  and  C_15
REMARK    6  A    between atoms: C_16  and  C_17
REMARK                            x       y       z     vdW  Elec       q    Type
REMARK                         _______ _______ _______ _____ _____    ______ ____
ROOT
ATOM      1  C   UNL     1     -65.670 -61.589 -72.906  0.00  0.00    +0.000 A 
ATOM      2  C   UNL     1     -66.624 -60.617 -72.548  0.00  0.00    +0.000 A 
ATOM      3  C   UNL     1     -64.747 -62.025 -71.934  0.00  0.00    +0.000 A 
ATOM      4  C   UNL     1     -66.613 -60.092 -71.247  0.00  0.00    +0.000 A 
ATOM      5  C   UNL     1     -64.743 -61.485 -70.649  0.00  0.00    +0.000 A 
ATOM      6  C   UNL     1     -65.674 -60.516 -70.315  0.00  0.00    +0.000 A 
ENDROOT
BRANCH   2   7
ATOM      7  O   UNL     1     -67.591 -60.263 -73.460  0.00  0.00    +0.000 OA
ATOM      8  C   UNL     1     -67.797 -58.889 -73.635  0.00  0.00    +0.000 C 
ENDBRANCH   2   7
BRANCH   3   9
ATOM      9  O   UNL     1     -63.798 -62.989 -72.167  0.00  0.00    +0.000 OA
ATOM     10  H   UNL     1     -63.417 -63.292 -71.313  0.00  0.00    +0.000 HD
ENDBRANCH   3   9
BRANCH   6  11
ATOM     11  O   UNL     1     -65.659 -59.996 -69.056  0.00  0.00    +0.000 OA
ATOM     12  H   UNL     1     -64.736 -59.817 -68.801  0.00  0.00    +0.000 HD
ENDBRANCH   6  11
BRANCH   1  14
ATOM     13  O   UNL     1     -65.779 -63.391 -74.419  0.00  0.00    +0.000 OA
ATOM     14  C   UNL     1     -65.582 -62.191 -74.261  0.00  0.00    +0.000 C 
BRANCH  14  15
ATOM     15  C   UNL     1     -65.193 -61.390 -75.395  0.00  0.00    +0.000 C 
ATOM     16  C   UNL     1     -64.883 -60.712 -76.339  0.00  0.00    +0.000 C 
BRANCH  16  17
ATOM     17  C   UNL     1     -64.512 -59.912 -77.460  0.00  0.00    +0.000 A 
ATOM     18  C   UNL     1     -63.164 -59.717 -77.757  0.00  0.00    +0.000 A 
ATOM     19  C   UNL     1     -65.495 -59.327 -78.254  0.00  0.00    +0.000 A 
ATOM     20  C   UNL     1     -62.800 -58.935 -78.850  0.00  0.00    +0.000 A 
ATOM     21  C   UNL     1     -65.130 -58.545 -79.348  0.00  0.00    +0.000 A 
ATOM     22  C   UNL     1     -63.783 -58.350 -79.644  0.00  0.00    +0.000 A 
ENDBRANCH  16  17
ENDBRANCH  14  15
ENDBRANCH   1  14
TORSDOF 6
ENDMDL
MODEL 8
REMARK VINA RESULT:      -4.9     17.614     21.556
REMARK  Name = 641785_Cardamonin.pdbqt.pdb
REMARK  6 active torsions:
REMARK  status: ('A' for Active; 'I' for Inactive)
REMARK    1  A    between atoms: C_1  and  C_14
REMARK    2  A    between atoms: C_2  and  O_7
REMARK    3  A    between atoms: C_3  and  O_9
REMARK    4  A    between atoms: C_6  and  O_11
REMARK    5  A    between atoms: C_14  and  C_15
REMARK    6  A    between atoms: C_16  and  C_17
REMARK                            x       y       z     vdW  Elec       q    Type
REMARK                         _______ _______ _______ _____ _____    ______ ____
ROOT
ATOM      1  C   UNL     1     -68.297 -55.981 -39.635  0.00  0.00    +0.000 A 
ATOM      2  C   UNL     1     -69.588 -55.417 -39.629  0.00  0.00    +0.000 A 
ATOM      3  C   UNL     1     -67.288 -55.362 -40.401  0.00  0.00    +0.000 A 
ATOM      4  C   UNL     1     -69.840 -54.274 -40.402  0.00  0.00    +0.000 A 
ATOM      5  C   UNL     1     -67.559 -54.232 -41.171  0.00  0.00    +0.000 A 
ATOM      6  C   UNL     1     -68.837 -53.699 -41.172  0.00  0.00    +0.000 A 
ENDROOT
BRANCH   2   7
ATOM      7  O   UNL     1     -70.548 -55.956 -38.805  0.00  0.00    +0.000 OA
ATOM      8  C   UNL     1     -71.070 -55.100 -37.828  0.00  0.00    +0.000 C 
ENDBRANCH   2   7
BRANCH   3   9
ATOM      9  O   UNL     1     -65.992 -55.809 -40.452  0.00  0.00    +0.000 OA
ATOM     10  H   UNL     1     -65.983 -56.775 -40.636  0.00  0.00    +0.000 HD
ENDBRANCH   3   9
BRANCH   6  11
ATOM     11  O   UNL     1     -69.087 -52.596 -41.930  0.00  0.00    +0.000 OA
ATOM     12  H   UNL     1     -69.293 -52.879 -42.839  0.00  0.00    +0.000 HD
ENDBRANCH   6  11
BRANCH   1  14
ATOM     13  O   UNL     1     -67.552 -58.208 -39.457  0.00  0.00    +0.000 OA
ATOM     14  C   UNL     1     -67.933 -57.202 -38.870  0.00  0.00    +0.000 C 
BRANCH  14  15
ATOM     15  C   UNL     1     -68.095 -57.245 -37.438  0.00  0.00    +0.000 C 
ATOM     16  C   UNL     1     -68.241 -57.296 -36.246  0.00  0.00    +0.000 C 
BRANCH  16  17
ATOM     17  C   UNL     1     -68.411 -57.350 -34.831  0.00  0.00    +0.000 A 
ATOM     18  C   UNL     1     -67.457 -57.990 -34.041  0.00  0.00    +0.000 A 
ATOM     19  C   UNL     1     -69.529 -56.767 -34.242  0.00  0.00    +0.000 A 
ATOM     20  C   UNL     1     -67.623 -58.045 -32.659  0.00  0.00    +0.000 A 
ATOM     21  C   UNL     1     -69.695 -56.822 -32.859  0.00  0.00    +0.000 A 
ATOM     22  C   UNL     1     -68.742 -57.461 -32.070  0.00  0.00    +0.000 A 
ENDBRANCH  16  17
ENDBRANCH  14  15
ENDBRANCH   1  14
TORSDOF 6
ENDMDL
MODEL 9
REMARK VINA RESULT:      -4.8     17.533     21.082
REMARK  Name = 641785_Cardamonin.pdbqt.pdb
REMARK  6 active torsions:
REMARK  status: ('A' for Active; 'I' for Inactive)
REMARK    1  A    between atoms: C_1  and  C_14
REMARK    2  A    between atoms: C_2  and  O_7
REMARK    3  A    between atoms: C_3  and  O_9
REMARK    4  A    between atoms: C_6  and  O_11
REMARK    5  A    between atoms: C_14  and  C_15
REMARK    6  A    between atoms: C_16  and  C_17
REMARK                            x       y       z     vdW  Elec       q    Type
REMARK                         _______ _______ _______ _____ _____    ______ ____
ROOT
ATOM      1  C   UNL     1     -67.560 -56.203 -40.010  0.00  0.00    +0.000 A 
ATOM      2  C   UNL     1     -67.765 -57.420 -40.687  0.00  0.00    +0.000 A 
ATOM      3  C   UNL     1     -66.556 -55.328 -40.474  0.00  0.00    +0.000 A 
ATOM      4  C   UNL     1     -66.952 -57.740 -41.785  0.00  0.00    +0.000 A 
ATOM      5  C   UNL     1     -65.750 -55.666 -41.560  0.00  0.00    +0.000 A 
ATOM      6  C   UNL     1     -65.949 -56.875 -42.205  0.00  0.00    +0.000 A 
ENDROOT
BRANCH   2   7
ATOM      7  O   UNL     1     -68.808 -58.231 -40.304  0.00  0.00    +0.000 OA
ATOM      8  C   UNL     1     -69.896 -58.290 -41.184  0.00  0.00    +0.000 C 
ENDBRANCH   2   7
BRANCH   3   9
ATOM      9  O   UNL     1     -66.295 -54.106 -39.908  0.00  0.00    +0.000 OA
ATOM     10  H   UNL     1     -67.130 -53.596 -39.821  0.00  0.00    +0.000 HD
ENDBRANCH   3   9
BRANCH   6  11
ATOM     11  O   UNL     1     -65.154 -57.193 -43.264  0.00  0.00    +0.000 OA
ATOM     12  H   UNL     1     -65.512 -57.986 -43.700  0.00  0.00    +0.000 HD
ENDBRANCH   6  11
BRANCH   1  14
ATOM     13  O   UNL     1     -69.094 -54.810 -38.891  0.00  0.00    +0.000 OA
ATOM     14  C   UNL     1     -68.350 -55.782 -38.825  0.00  0.00    +0.000 C 
BRANCH  14  15
ATOM     15  C   UNL     1     -68.198 -56.462 -37.562  0.00  0.00    +0.000 C 
ATOM     16  C   UNL     1     -68.064 -57.013 -36.502  0.00  0.00    +0.000 C 
BRANCH  16  17
ATOM     17  C   UNL     1     -67.906 -57.673 -35.248  0.00  0.00    +0.000 A 
ATOM     18  C   UNL     1     -68.349 -57.057 -34.079  0.00  0.00    +0.000 A 
ATOM     19  C   UNL     1     -67.308 -58.929 -35.193  0.00  0.00    +0.000 A 
ATOM     20  C   UNL     1     -68.194 -57.700 -32.853  0.00  0.00    +0.000 A 
ATOM     21  C   UNL     1     -67.153 -59.572 -33.967  0.00  0.00    +0.000 A 
ATOM     22  C   UNL     1     -67.595 -58.957 -32.798  0.00  0.00    +0.000 A 
ENDBRANCH  16  17
ENDBRANCH  14  15
ENDBRANCH   1  14
TORSDOF 6
ENDMDL
