MODEL 1
REMARK VINA RESULT:      -5.3      0.000      0.000
REMARK  Name = 6440856_Goniothalamin.pdbqt.pdb
REMARK  2 active torsions:
REMARK  status: ('A' for Active; 'I' for Inactive)
REMARK    1  A    between atoms: C_1  and  C_5
REMARK    2  A    between atoms: C_2  and  C_10
REMARK                            x       y       z     vdW  Elec       q    Type
REMARK                         _______ _______ _______ _____ _____    ______ ____
ROOT
ATOM      1  C   UNL     1     -67.895 -56.959 -36.543  0.00  0.00    +0.000 C 
ATOM      2  C   UNL     1     -67.719 -56.483 -37.631  0.00  0.00    +0.000 C 
ENDROOT
BRANCH   1   5
ATOM      3  O   UNL     1     -67.287 -58.641 -34.862  0.00  0.00    +0.000 OA
ATOM      4  O   UNL     1     -66.878 -60.137 -33.139  0.00  0.00    +0.000 OA
ATOM      5  C   UNL     1     -68.103 -57.524 -35.264  0.00  0.00    +0.000 A 
ATOM      6  C   UNL     1     -69.060 -57.093 -34.304  0.00  0.00    +0.000 A 
ATOM      7  C   UNL     1     -69.344 -57.638 -32.924  0.00  0.00    +0.000 A 
ATOM      8  C   UNL     1     -68.553 -58.533 -32.840  0.00  0.00    +0.000 A 
ATOM      9  C   UNL     1     -67.503 -59.191 -33.594  0.00  0.00    +0.000 A 
ENDBRANCH   1   5
BRANCH   2  10
ATOM     10  C   UNL     1     -67.510 -55.917 -38.923  0.00  0.00    +0.000 A 
ATOM     11  C   UNL     1     -67.467 -56.741 -40.045  0.00  0.00    +0.000 A 
ATOM     12  C   UNL     1     -67.349 -54.540 -39.062  0.00  0.00    +0.000 A 
ATOM     13  C   UNL     1     -67.262 -56.188 -41.307  0.00  0.00    +0.000 A 
ATOM     14  C   UNL     1     -67.145 -53.987 -40.324  0.00  0.00    +0.000 A 
ATOM     15  C   UNL     1     -67.102 -54.811 -41.446  0.00  0.00    +0.000 A 
ENDBRANCH   2  10
TORSDOF 2
ENDMDL
MODEL 2
REMARK VINA RESULT:      -5.3     11.952     16.108
REMARK  Name = 6440856_Goniothalamin.pdbqt.pdb
REMARK  2 active torsions:
REMARK  status: ('A' for Active; 'I' for Inactive)
REMARK    1  A    between atoms: C_1  and  C_5
REMARK    2  A    between atoms: C_2  and  C_10
REMARK                            x       y       z     vdW  Elec       q    Type
REMARK                         _______ _______ _______ _____ _____    ______ ____
ROOT
ATOM      1  C   UNL     1     -72.891 -57.859 -23.059  0.00  0.00    +0.000 C 
ATOM      2  C   UNL     1     -73.253 -57.135 -22.173  0.00  0.00    +0.000 C 
ENDROOT
BRANCH   1   5
ATOM      3  O   UNL     1     -72.515 -60.138 -23.889  0.00  0.00    +0.000 OA
ATOM      4  O   UNL     1     -72.083 -62.193 -24.872  0.00  0.00    +0.000 OA
ATOM      5  C   UNL     1     -72.461 -58.714 -24.100  0.00  0.00    +0.000 A 
ATOM      6  C   UNL     1     -71.969 -58.305 -25.369  0.00  0.00    +0.000 A 
ATOM      7  C   UNL     1     -71.493 -59.148 -26.529  0.00  0.00    +0.000 A 
ATOM      8  C   UNL     1     -71.636 -60.259 -26.106  0.00  0.00    +0.000 A 
ATOM      9  C   UNL     1     -72.087 -60.973 -24.928  0.00  0.00    +0.000 A 
ENDBRANCH   1   5
BRANCH   2  10
ATOM     10  C   UNL     1     -73.684 -56.274 -21.120  0.00  0.00    +0.000 A 
ATOM     11  C   UNL     1     -75.044 -56.054 -20.913  0.00  0.00    +0.000 A 
ATOM     12  C   UNL     1     -72.743 -55.655 -20.299  0.00  0.00    +0.000 A 
ATOM     13  C   UNL     1     -75.463 -55.213 -19.885  0.00  0.00    +0.000 A 
ATOM     14  C   UNL     1     -73.164 -54.814 -19.271  0.00  0.00    +0.000 A 
ATOM     15  C   UNL     1     -74.524 -54.594 -19.064  0.00  0.00    +0.000 A 
ENDBRANCH   2  10
TORSDOF 2
ENDMDL
MODEL 3
REMARK VINA RESULT:      -5.2      2.496      6.955
REMARK  Name = 6440856_Goniothalamin.pdbqt.pdb
REMARK  2 active torsions:
REMARK  status: ('A' for Active; 'I' for Inactive)
REMARK    1  A    between atoms: C_1  and  C_5
REMARK    2  A    between atoms: C_2  and  C_10
REMARK                            x       y       z     vdW  Elec       q    Type
REMARK                         _______ _______ _______ _____ _____    ______ ____
ROOT
ATOM      1  C   UNL     1     -67.738 -56.298 -37.662  0.00  0.00    +0.000 C 
ATOM      2  C   UNL     1     -67.983 -56.666 -36.545  0.00  0.00    +0.000 C 
ENDROOT
BRANCH   1   5
ATOM      3  O   UNL     1     -67.328 -56.846 -40.018  0.00  0.00    +0.000 OA
ATOM      4  O   UNL     1     -66.913 -57.135 -42.281  0.00  0.00    +0.000 OA
ATOM      5  C   UNL     1     -67.448 -55.861 -38.975  0.00  0.00    +0.000 A 
ATOM      6  C   UNL     1     -67.259 -54.513 -39.385  0.00  0.00    +0.000 A 
ATOM      7  C   UNL     1     -66.949 -53.965 -40.758  0.00  0.00    +0.000 A 
ATOM      8  C   UNL     1     -66.901 -54.961 -41.421  0.00  0.00    +0.000 A 
ATOM      9  C   UNL     1     -67.040 -56.401 -41.313  0.00  0.00    +0.000 A 
ENDBRANCH   1   5
BRANCH   2  10
ATOM     10  C   UNL     1     -68.273 -57.104 -35.219  0.00  0.00    +0.000 A 
ATOM     11  C   UNL     1     -69.540 -56.895 -34.679  0.00  0.00    +0.000 A 
ATOM     12  C   UNL     1     -67.289 -57.741 -34.466  0.00  0.00    +0.000 A 
ATOM     13  C   UNL     1     -69.822 -57.322 -33.383  0.00  0.00    +0.000 A 
ATOM     14  C   UNL     1     -67.572 -58.168 -33.171  0.00  0.00    +0.000 A 
ATOM     15  C   UNL     1     -68.839 -57.959 -32.631  0.00  0.00    +0.000 A 
ENDBRANCH   2  10
TORSDOF 2
ENDMDL
MODEL 4
REMARK VINA RESULT:      -5.1     23.636     25.408
REMARK  Name = 6440856_Goniothalamin.pdbqt.pdb
REMARK  2 active torsions:
REMARK  status: ('A' for Active; 'I' for Inactive)
REMARK    1  A    between atoms: C_1  and  C_5
REMARK    2  A    between atoms: C_2  and  C_10
REMARK                            x       y       z     vdW  Elec       q    Type
REMARK                         _______ _______ _______ _____ _____    ______ ____
ROOT
ATOM      1  C   UNL     1     -65.229 -46.959 -59.561  0.00  0.00    +0.000 C 
ATOM      2  C   UNL     1     -66.419 -47.083 -59.459  0.00  0.00    +0.000 C 
ENDROOT
BRANCH   1   5
ATOM      3  O   UNL     1     -63.072 -46.417 -58.525  0.00  0.00    +0.000 OA
ATOM      4  O   UNL     1     -60.936 -45.945 -57.755  0.00  0.00    +0.000 OA
ATOM      5  C   UNL     1     -63.828 -46.811 -59.685  0.00  0.00    +0.000 A 
ATOM      6  C   UNL     1     -63.067 -47.018 -60.868  0.00  0.00    +0.000 A 
ATOM      7  C   UNL     1     -61.577 -46.882 -61.084  0.00  0.00    +0.000 A 
ATOM      8  C   UNL     1     -61.196 -46.554 -59.997  0.00  0.00    +0.000 A 
ATOM      9  C   UNL     1     -61.686 -46.274 -58.661  0.00  0.00    +0.000 A 
ENDBRANCH   1   5
BRANCH   2  10
ATOM     10  C   UNL     1     -67.832 -47.230 -59.337  0.00  0.00    +0.000 A 
ATOM     11  C   UNL     1     -68.375 -47.816 -58.196  0.00  0.00    +0.000 A 
ATOM     12  C   UNL     1     -68.668 -46.786 -60.360  0.00  0.00    +0.000 A 
ATOM     13  C   UNL     1     -69.756 -47.960 -58.078  0.00  0.00    +0.000 A 
ATOM     14  C   UNL     1     -70.049 -46.930 -60.241  0.00  0.00    +0.000 A 
ATOM     15  C   UNL     1     -70.592 -47.516 -59.100  0.00  0.00    +0.000 A 
ENDBRANCH   2  10
TORSDOF 2
ENDMDL
MODEL 5
REMARK VINA RESULT:      -5.1     12.833     16.037
REMARK  Name = 6440856_Goniothalamin.pdbqt.pdb
REMARK  2 active torsions:
REMARK  status: ('A' for Active; 'I' for Inactive)
REMARK    1  A    between atoms: C_1  and  C_5
REMARK    2  A    between atoms: C_2  and  C_10
REMARK                            x       y       z     vdW  Elec       q    Type
REMARK                         _______ _______ _______ _____ _____    ______ ____
ROOT
ATOM      1  C   UNL     1     -73.265 -57.126 -22.104  0.00  0.00    +0.000 C 
ATOM      2  C   UNL     1     -72.891 -57.837 -22.996  0.00  0.00    +0.000 C 
ENDROOT
BRANCH   1   5
ATOM      3  O   UNL     1     -75.122 -56.088 -20.880  0.00  0.00    +0.000 OA
ATOM      4  O   UNL     1     -76.715 -55.010 -19.586  0.00  0.00    +0.000 OA
ATOM      5  C   UNL     1     -73.707 -56.292 -21.051  0.00  0.00    +0.000 A 
ATOM      6  C   UNL     1     -72.877 -55.614 -20.116  0.00  0.00    +0.000 A 
ATOM      7  C   UNL     1     -73.266 -54.711 -18.969  0.00  0.00    +0.000 A 
ATOM      8  C   UNL     1     -74.461 -54.709 -19.046  0.00  0.00    +0.000 A 
ATOM      9  C   UNL     1     -75.546 -55.261 -19.834  0.00  0.00    +0.000 A 
ENDBRANCH   1   5
BRANCH   2  10
ATOM     10  C   UNL     1     -72.446 -58.681 -24.056  0.00  0.00    +0.000 A 
ATOM     11  C   UNL     1     -71.916 -58.121 -25.216  0.00  0.00    +0.000 A 
ATOM     12  C   UNL     1     -72.541 -60.065 -23.928  0.00  0.00    +0.000 A 
ATOM     13  C   UNL     1     -71.482 -58.946 -26.251  0.00  0.00    +0.000 A 
ATOM     14  C   UNL     1     -72.106 -60.890 -24.963  0.00  0.00    +0.000 A 
ATOM     15  C   UNL     1     -71.576 -60.330 -26.124  0.00  0.00    +0.000 A 
ENDBRANCH   2  10
TORSDOF 2
ENDMDL
MODEL 6
REMARK VINA RESULT:      -5.0      1.440      2.197
REMARK  Name = 6440856_Goniothalamin.pdbqt.pdb
REMARK  2 active torsions:
REMARK  status: ('A' for Active; 'I' for Inactive)
REMARK    1  A    between atoms: C_1  and  C_5
REMARK    2  A    between atoms: C_2  and  C_10
REMARK                            x       y       z     vdW  Elec       q    Type
REMARK                         _______ _______ _______ _____ _____    ______ ____
ROOT
ATOM      1  C   UNL     1     -67.976 -56.724 -36.552  0.00  0.00    +0.000 C 
ATOM      2  C   UNL     1     -67.752 -56.326 -37.663  0.00  0.00    +0.000 C 
ENDROOT
BRANCH   1   5
ATOM      3  O   UNL     1     -69.507 -56.880 -34.641  0.00  0.00    +0.000 OA
ATOM      4  O   UNL     1     -70.788 -57.151 -32.727  0.00  0.00    +0.000 OA
ATOM      5  C   UNL     1     -68.236 -57.190 -35.243  0.00  0.00    +0.000 A 
ATOM      6  C   UNL     1     -67.350 -57.955 -34.436  0.00  0.00    +0.000 A 
ATOM      7  C   UNL     1     -67.550 -58.489 -33.036  0.00  0.00    +0.000 A 
ATOM      8  C   UNL     1     -68.653 -58.102 -32.775  0.00  0.00    +0.000 A 
ATOM      9  C   UNL     1     -69.752 -57.347 -33.344  0.00  0.00    +0.000 A 
ENDBRANCH   1   5
BRANCH   2  10
ATOM     10  C   UNL     1     -67.488 -55.852 -38.982  0.00  0.00    +0.000 A 
ATOM     11  C   UNL     1     -67.281 -54.493 -39.205  0.00  0.00    +0.000 A 
ATOM     12  C   UNL     1     -67.436 -56.751 -40.046  0.00  0.00    +0.000 A 
ATOM     13  C   UNL     1     -67.023 -54.031 -40.494  0.00  0.00    +0.000 A 
ATOM     14  C   UNL     1     -67.178 -56.288 -41.334  0.00  0.00    +0.000 A 
ATOM     15  C   UNL     1     -66.971 -54.929 -41.557  0.00  0.00    +0.000 A 
ENDBRANCH   2  10
TORSDOF 2
ENDMDL
MODEL 7
REMARK VINA RESULT:      -4.9     28.185     31.566
REMARK  Name = 6440856_Goniothalamin.pdbqt.pdb
REMARK  2 active torsions:
REMARK  status: ('A' for Active; 'I' for Inactive)
REMARK    1  A    between atoms: C_1  and  C_5
REMARK    2  A    between atoms: C_2  and  C_10
REMARK                            x       y       z     vdW  Elec       q    Type
REMARK                         _______ _______ _______ _____ _____    ______ ____
ROOT
ATOM      1  C   UNL     1     -57.264 -59.378 -66.069  0.00  0.00    +0.000 C 
ATOM      2  C   UNL     1     -56.524 -59.093 -66.970  0.00  0.00    +0.000 C 
ENDROOT
BRANCH   1   5
ATOM      3  O   UNL     1     -59.473 -60.140 -65.318  0.00  0.00    +0.000 OA
ATOM      4  O   UNL     1     -61.479 -60.842 -64.391  0.00  0.00    +0.000 OA
ATOM      5  C   UNL     1     -58.134 -59.710 -65.005  0.00  0.00    +0.000 A 
ATOM      6  C   UNL     1     -57.818 -59.664 -63.620  0.00  0.00    +0.000 A 
ATOM      7  C   UNL     1     -58.684 -60.001 -62.428  0.00  0.00    +0.000 A 
ATOM      8  C   UNL     1     -59.715 -60.319 -62.949  0.00  0.00    +0.000 A 
ATOM      9  C   UNL     1     -60.324 -60.466 -64.256  0.00  0.00    +0.000 A 
ENDBRANCH   1   5
BRANCH   2  10
ATOM     10  C   UNL     1     -55.646 -58.754 -68.041  0.00  0.00    +0.000 A 
ATOM     11  C   UNL     1     -54.572 -59.585 -68.350  0.00  0.00    +0.000 A 
ATOM     12  C   UNL     1     -55.864 -57.591 -68.778  0.00  0.00    +0.000 A 
ATOM     13  C   UNL     1     -53.714 -59.253 -69.396  0.00  0.00    +0.000 A 
ATOM     14  C   UNL     1     -55.006 -57.260 -69.824  0.00  0.00    +0.000 A 
ATOM     15  C   UNL     1     -53.932 -58.092 -70.133  0.00  0.00    +0.000 A 
ENDBRANCH   2  10
TORSDOF 2
ENDMDL
MODEL 8
REMARK VINA RESULT:      -4.8     38.958     42.287
REMARK  Name = 6440856_Goniothalamin.pdbqt.pdb
REMARK  2 active torsions:
REMARK  status: ('A' for Active; 'I' for Inactive)
REMARK    1  A    between atoms: C_1  and  C_5
REMARK    2  A    between atoms: C_2  and  C_10
REMARK                            x       y       z     vdW  Elec       q    Type
REMARK                         _______ _______ _______ _____ _____    ______ ____
ROOT
ATOM      1  C   UNL     1     -51.754 -62.094 -75.285  0.00  0.00    +0.000 C 
ATOM      2  C   UNL     1     -51.288 -61.645 -76.296  0.00  0.00    +0.000 C 
ENDROOT
BRANCH   1   5
ATOM      3  O   UNL     1     -53.627 -63.190 -74.140  0.00  0.00    +0.000 OA
ATOM      4  O   UNL     1     -55.268 -64.215 -72.862  0.00  0.00    +0.000 OA
ATOM      5  C   UNL     1     -52.305 -62.620 -74.094  0.00  0.00    +0.000 A 
ATOM      6  C   UNL     1     -51.674 -62.646 -72.820  0.00  0.00    +0.000 A 
ATOM      7  C   UNL     1     -52.190 -63.186 -71.507  0.00  0.00    +0.000 A 
ATOM      8  C   UNL     1     -53.276 -63.590 -71.811  0.00  0.00    +0.000 A 
ATOM      9  C   UNL     1     -54.161 -63.707 -72.954  0.00  0.00    +0.000 A 
ENDBRANCH   1   5
BRANCH   2  10
ATOM     10  C   UNL     1     -50.735 -61.111 -77.498  0.00  0.00    +0.000 A 
ATOM     11  C   UNL     1     -51.441 -60.155 -78.224  0.00  0.00    +0.000 A 
ATOM     12  C   UNL     1     -49.489 -61.547 -77.943  0.00  0.00    +0.000 A 
ATOM     13  C   UNL     1     -50.900 -59.635 -79.398  0.00  0.00    +0.000 A 
ATOM     14  C   UNL     1     -48.948 -61.026 -79.117  0.00  0.00    +0.000 A 
ATOM     15  C   UNL     1     -49.654 -60.070 -79.843  0.00  0.00    +0.000 A 
ENDBRANCH   2  10
TORSDOF 2
ENDMDL
MODEL 9
REMARK VINA RESULT:      -4.8     28.720     32.537
REMARK  Name = 6440856_Goniothalamin.pdbqt.pdb
REMARK  2 active torsions:
REMARK  status: ('A' for Active; 'I' for Inactive)
REMARK    1  A    between atoms: C_1  and  C_5
REMARK    2  A    between atoms: C_2  and  C_10
REMARK                            x       y       z     vdW  Elec       q    Type
REMARK                         _______ _______ _______ _____ _____    ______ ____
ROOT
ATOM      1  C   UNL     1     -56.562 -59.163 -66.818  0.00  0.00    +0.000 C 
ATOM      2  C   UNL     1     -57.261 -59.395 -65.870  0.00  0.00    +0.000 C 
ENDROOT
BRANCH   1   5
ATOM      3  O   UNL     1     -54.753 -59.860 -68.322  0.00  0.00    +0.000 OA
ATOM      4  O   UNL     1     -53.074 -60.317 -69.854  0.00  0.00    +0.000 OA
ATOM      5  C   UNL     1     -55.739 -58.885 -67.933  0.00  0.00    +0.000 A 
ATOM      6  C   UNL     1     -55.783 -57.712 -68.735  0.00  0.00    +0.000 A 
ATOM      7  C   UNL     1     -54.945 -57.340 -69.936  0.00  0.00    +0.000 A 
ATOM      8  C   UNL     1     -54.226 -58.292 -70.044  0.00  0.00    +0.000 A 
ATOM      9  C   UNL     1     -53.944 -59.574 -69.427  0.00  0.00    +0.000 A 
ENDBRANCH   1   5
BRANCH   2  10
ATOM     10  C   UNL     1     -58.091 -59.671 -64.743  0.00  0.00    +0.000 A 
ATOM     11  C   UNL     1     -59.385 -60.151 -64.934  0.00  0.00    +0.000 A 
ATOM     12  C   UNL     1     -57.607 -59.461 -63.454  0.00  0.00    +0.000 A 
ATOM     13  C   UNL     1     -60.196 -60.420 -63.833  0.00  0.00    +0.000 A 
ATOM     14  C   UNL     1     -58.418 -59.730 -62.354  0.00  0.00    +0.000 A 
ATOM     15  C   UNL     1     -59.711 -60.210 -62.544  0.00  0.00    +0.000 A 
ENDBRANCH   2  10
TORSDOF 2
ENDMDL
