MODEL 1
REMARK VINA RESULT:      -3.6      0.000      0.000
REMARK  Name = 649_Dihydrouracil.pdb
REMARK  0 active torsions:
REMARK  status: ('A' for Active; 'I' for Inactive)
REMARK                            x       y       z     vdW  Elec       q    Type
REMARK                         _______ _______ _______ _____ _____    ______ ____
ROOT
ATOM      1  O   UNL     1     -60.924 -45.979 -57.907  0.00  0.00    +0.000 OA
ATOM      2  O   UNL     1     -65.143 -46.760 -59.607  0.00  0.00    +0.000 OA
ATOM      3  N   UNL     1     -63.366 -46.945 -61.045  0.00  0.00    +0.000 N 
ATOM      4  N   UNL     1     -63.033 -46.375 -58.781  0.00  0.00    +0.000 N 
ATOM      5  C   UNL     1     -62.046 -46.881 -61.266  0.00  0.00    +0.000 A 
ATOM      6  C   UNL     1     -61.108 -46.533 -60.157  0.00  0.00    +0.000 A 
ATOM      7  C   UNL     1     -61.644 -46.269 -58.851  0.00  0.00    +0.000 A 
ATOM      8  C   UNL     1     -63.934 -46.699 -59.801  0.00  0.00    +0.000 A 
ATOM      9  H   UNL     1     -63.993 -47.182 -61.804  0.00  0.00    +0.000 HD
ATOM     10  H   UNL     1     -63.441 -46.195 -57.877  0.00  0.00    +0.000 HD
ENDROOT
TORSDOF 0
ENDMDL
MODEL 2
REMARK VINA RESULT:      -3.2      1.766      2.425
REMARK  Name = 649_Dihydrouracil.pdb
REMARK  0 active torsions:
REMARK  status: ('A' for Active; 'I' for Inactive)
REMARK                            x       y       z     vdW  Elec       q    Type
REMARK                         _______ _______ _______ _____ _____    ______ ____
ROOT
ATOM      1  O   UNL     1     -62.376 -45.967 -57.105  0.00  0.00    +0.000 OA
ATOM      2  O   UNL     1     -61.837 -47.058 -61.556  0.00  0.00    +0.000 OA
ATOM      3  N   UNL     1     -63.972 -47.022 -60.721  0.00  0.00    +0.000 N 
ATOM      4  N   UNL     1     -62.128 -46.517 -59.342  0.00  0.00    +0.000 N 
ATOM      5  C   UNL     1     -64.808 -46.829 -59.692  0.00  0.00    +0.000 A 
ATOM      6  C   UNL     1     -64.280 -46.442 -58.349  0.00  0.00    +0.000 A 
ATOM      7  C   UNL     1     -62.863 -46.281 -58.180  0.00  0.00    +0.000 A 
ATOM      8  C   UNL     1     -62.595 -46.879 -60.610  0.00  0.00    +0.000 A 
ATOM      9  H   UNL     1     -64.341 -47.283 -61.627  0.00  0.00    +0.000 HD
ATOM     10  H   UNL     1     -61.129 -46.413 -59.256  0.00  0.00    +0.000 HD
ENDROOT
TORSDOF 0
ENDMDL
MODEL 3
REMARK VINA RESULT:      -3.2      2.196      2.621
REMARK  Name = 649_Dihydrouracil.pdb
REMARK  0 active torsions:
REMARK  status: ('A' for Active; 'I' for Inactive)
REMARK                            x       y       z     vdW  Elec       q    Type
REMARK                         _______ _______ _______ _____ _____    ______ ____
ROOT
ATOM      1  O   UNL     1     -60.793 -46.784 -59.911  0.00  0.00    +0.000 OA
ATOM      2  O   UNL     1     -63.215 -45.930 -56.078  0.00  0.00    +0.000 OA
ATOM      3  N   UNL     1     -64.386 -46.371 -57.999  0.00  0.00    +0.000 N 
ATOM      4  N   UNL     1     -62.028 -46.358 -57.998  0.00  0.00    +0.000 N 
ATOM      5  C   UNL     1     -64.395 -46.667 -59.305  0.00  0.00    +0.000 A 
ATOM      6  C   UNL     1     -63.112 -46.830 -60.054  0.00  0.00    +0.000 A 
ATOM      7  C   UNL     1     -61.871 -46.664 -59.350  0.00  0.00    +0.000 A 
ATOM      8  C   UNL     1     -63.214 -46.201 -57.273  0.00  0.00    +0.000 A 
ATOM      9  H   UNL     1     -65.261 -46.264 -57.501  0.00  0.00    +0.000 HD
ATOM     10  H   UNL     1     -61.175 -46.235 -57.475  0.00  0.00    +0.000 HD
ENDROOT
TORSDOF 0
ENDMDL
MODEL 4
REMARK VINA RESULT:      -3.2     33.672     34.650
REMARK  Name = 649_Dihydrouracil.pdb
REMARK  0 active torsions:
REMARK  status: ('A' for Active; 'I' for Inactive)
REMARK                            x       y       z     vdW  Elec       q    Type
REMARK                         _______ _______ _______ _____ _____    ______ ____
ROOT
ATOM      1  O   UNL     1     -52.416 -58.536 -92.071  0.00  0.00    +0.000 OA
ATOM      2  O   UNL     1     -52.333 -60.208 -87.771  0.00  0.00    +0.000 OA
ATOM      3  N   UNL     1     -54.031 -60.899 -89.148  0.00  0.00    +0.000 N 
ATOM      4  N   UNL     1     -52.393 -59.387 -89.917  0.00  0.00    +0.000 N 
ATOM      5  C   UNL     1     -54.639 -60.864 -90.341  0.00  0.00    +0.000 A 
ATOM      6  C   UNL     1     -54.092 -60.019 -91.445  0.00  0.00    +0.000 A 
ATOM      7  C   UNL     1     -52.906 -59.245 -91.206  0.00  0.00    +0.000 A 
ATOM      8  C   UNL     1     -52.882 -60.170 -88.865  0.00  0.00    +0.000 A 
ATOM      9  H   UNL     1     -54.409 -61.476 -88.407  0.00  0.00    +0.000 HD
ATOM     10  H   UNL     1     -51.560 -58.856 -89.716  0.00  0.00    +0.000 HD
ENDROOT
TORSDOF 0
ENDMDL
MODEL 5
REMARK VINA RESULT:      -3.1     21.445     22.149
REMARK  Name = 649_Dihydrouracil.pdb
REMARK  0 active torsions:
REMARK  status: ('A' for Active; 'I' for Inactive)
REMARK                            x       y       z     vdW  Elec       q    Type
REMARK                         _______ _______ _______ _____ _____    ______ ____
ROOT
ATOM      1  O   UNL     1     -67.928 -57.391 -38.560  0.00  0.00    +0.000 OA
ATOM      2  O   UNL     1     -65.563 -56.107 -42.309  0.00  0.00    +0.000 OA
ATOM      3  N   UNL     1     -66.325 -54.454 -40.915  0.00  0.00    +0.000 N 
ATOM      4  N   UNL     1     -66.743 -56.725 -40.436  0.00  0.00    +0.000 N 
ATOM      5  C   UNL     1     -66.984 -54.088 -39.807  0.00  0.00    +0.000 A 
ATOM      6  C   UNL     1     -67.588 -55.119 -38.910  0.00  0.00    +0.000 A 
ATOM      7  C   UNL     1     -67.453 -56.506 -39.256  0.00  0.00    +0.000 A 
ATOM      8  C   UNL     1     -66.167 -55.781 -41.294  0.00  0.00    +0.000 A 
ATOM      9  H   UNL     1     -65.919 -53.748 -41.515  0.00  0.00    +0.000 HD
ATOM     10  H   UNL     1     -66.631 -57.689 -40.707  0.00  0.00    +0.000 HD
ENDROOT
TORSDOF 0
ENDMDL
MODEL 6
REMARK VINA RESULT:      -3.1      1.962      3.474
REMARK  Name = 649_Dihydrouracil.pdb
REMARK  0 active torsions:
REMARK  status: ('A' for Active; 'I' for Inactive)
REMARK                            x       y       z     vdW  Elec       q    Type
REMARK                         _______ _______ _______ _____ _____    ______ ____
ROOT
ATOM      1  O   UNL     1     -64.194 -47.416 -60.675  0.00  0.00    +0.000 OA
ATOM      2  O   UNL     1     -60.423 -44.947 -61.664  0.00  0.00    +0.000 OA
ATOM      3  N   UNL     1     -60.924 -45.282 -59.452  0.00  0.00    +0.000 N 
ATOM      4  N   UNL     1     -62.297 -46.174 -61.150  0.00  0.00    +0.000 N 
ATOM      5  C   UNL     1     -61.724 -45.808 -58.514  0.00  0.00    +0.000 A 
ATOM      6  C   UNL     1     -62.931 -46.597 -58.904  0.00  0.00    +0.000 A 
ATOM      7  C   UNL     1     -63.221 -46.781 -60.299  0.00  0.00    +0.000 A 
ATOM      8  C   UNL     1     -61.160 -45.432 -60.813  0.00  0.00    +0.000 A 
ATOM      9  H   UNL     1     -60.108 -44.750 -59.177  0.00  0.00    +0.000 HD
ATOM     10  H   UNL     1     -62.472 -46.284 -62.136  0.00  0.00    +0.000 HD
ENDROOT
TORSDOF 0
ENDMDL
MODEL 7
REMARK VINA RESULT:      -3.1     28.580     29.343
REMARK  Name = 649_Dihydrouracil.pdb
REMARK  0 active torsions:
REMARK  status: ('A' for Active; 'I' for Inactive)
REMARK                            x       y       z     vdW  Elec       q    Type
REMARK                         _______ _______ _______ _____ _____    ______ ____
ROOT
ATOM      1  O   UNL     1     -69.555 -56.973 -35.736  0.00  0.00    +0.000 OA
ATOM      2  O   UNL     1     -67.267 -58.455 -32.013  0.00  0.00    +0.000 OA
ATOM      3  N   UNL     1     -68.980 -56.966 -31.685  0.00  0.00    +0.000 N 
ATOM      4  N   UNL     1     -68.419 -57.705 -33.854  0.00  0.00    +0.000 N 
ATOM      5  C   UNL     1     -69.957 -56.200 -32.187  0.00  0.00    +0.000 A 
ATOM      6  C   UNL     1     -70.212 -56.165 -33.659  0.00  0.00    +0.000 A 
ATOM      7  C   UNL     1     -69.392 -56.964 -34.525  0.00  0.00    +0.000 A 
ATOM      8  C   UNL     1     -68.159 -57.758 -32.480  0.00  0.00    +0.000 A 
ATOM      9  H   UNL     1     -68.816 -56.984 -30.686  0.00  0.00    +0.000 HD
ATOM     10  H   UNL     1     -67.826 -58.277 -34.434  0.00  0.00    +0.000 HD
ENDROOT
TORSDOF 0
ENDMDL
MODEL 8
REMARK VINA RESULT:      -3.1     17.795     18.715
REMARK  Name = 649_Dihydrouracil.pdb
REMARK  0 active torsions:
REMARK  status: ('A' for Active; 'I' for Inactive)
REMARK                            x       y       z     vdW  Elec       q    Type
REMARK                         _______ _______ _______ _____ _____    ______ ____
ROOT
ATOM      1  O   UNL     1     -67.370 -58.697 -73.014  0.00  0.00    +0.000 OA
ATOM      2  O   UNL     1     -65.689 -60.618 -69.169  0.00  0.00    +0.000 OA
ATOM      3  N   UNL     1     -64.979 -61.464 -71.179  0.00  0.00    +0.000 N 
ATOM      4  N   UNL     1     -66.514 -59.675 -71.096  0.00  0.00    +0.000 N 
ATOM      5  C   UNL     1     -65.009 -61.443 -72.518  0.00  0.00    +0.000 A 
ATOM      6  C   UNL     1     -65.864 -60.453 -73.240  0.00  0.00    +0.000 A 
ATOM      7  C   UNL     1     -66.652 -59.527 -72.476  0.00  0.00    +0.000 A 
ATOM      8  C   UNL     1     -65.722 -60.591 -70.394  0.00  0.00    +0.000 A 
ATOM      9  H   UNL     1     -64.396 -62.139 -70.699  0.00  0.00    +0.000 HD
ATOM     10  H   UNL     1     -67.055 -59.040 -70.531  0.00  0.00    +0.000 HD
ENDROOT
TORSDOF 0
ENDMDL
MODEL 9
REMARK VINA RESULT:      -3.1     18.280     18.850
REMARK  Name = 649_Dihydrouracil.pdb
REMARK  0 active torsions:
REMARK  status: ('A' for Active; 'I' for Inactive)
REMARK                            x       y       z     vdW  Elec       q    Type
REMARK                         _______ _______ _______ _____ _____    ______ ____
ROOT
ATOM      1  O   UNL     1     -64.847 -60.978 -70.184  0.00  0.00    +0.000 OA
ATOM      2  O   UNL     1     -68.008 -58.490 -72.445  0.00  0.00    +0.000 OA
ATOM      3  N   UNL     1     -66.715 -59.934 -73.671  0.00  0.00    +0.000 N 
ATOM      4  N   UNL     1     -66.428 -59.739 -71.338  0.00  0.00    +0.000 N 
ATOM      5  C   UNL     1     -65.740 -60.851 -73.725  0.00  0.00    +0.000 A 
ATOM      6  C   UNL     1     -65.024 -61.270 -72.482  0.00  0.00    +0.000 A 
ATOM      7  C   UNL     1     -65.398 -60.674 -71.230  0.00  0.00    +0.000 A 
ATOM      8  C   UNL     1     -67.115 -59.328 -72.486  0.00  0.00    +0.000 A 
ATOM      9  H   UNL     1     -67.194 -59.658 -74.518  0.00  0.00    +0.000 HD
ATOM     10  H   UNL     1     -66.714 -59.302 -70.476  0.00  0.00    +0.000 HD
ENDROOT
TORSDOF 0
ENDMDL
