MODEL 1
REMARK VINA RESULT:      -8.5      0.000      0.000
REMARK  Name = 6509753_ManzamineA.pdbqt.pdb
REMARK  2 active torsions:
REMARK  status: ('A' for Active; 'I' for Inactive)
REMARK    1  A    between atoms: C_7  and  O_42
REMARK    2  A    between atoms: C_11  and  C_30
REMARK                            x       y       z     vdW  Elec       q    Type
REMARK                         _______ _______ _______ _____ _____    ______ ____
ROOT
ATOM      1  N   UNL     1     -64.453 -45.451 -51.214  0.00  0.00    +0.000 N 
ATOM      2  N   UNL     1     -65.684 -50.234 -51.884  0.00  0.00    +0.000 N 
ATOM      3  C   UNL     1     -64.869 -47.559 -52.554  0.00  0.00    +0.000 C 
ATOM      4  C   UNL     1     -65.433 -46.191 -52.050  0.00  0.00    +0.000 C 
ATOM      5  C   UNL     1     -64.931 -47.894 -54.101  0.00  0.00    +0.000 C 
ATOM      6  C   UNL     1     -63.491 -47.336 -52.125  0.00  0.00    +0.000 C 
ATOM      7  C   UNL     1     -66.338 -45.375 -52.977  0.00  0.00    +0.000 C 
ATOM      8  C   UNL     1     -65.430 -48.757 -51.837  0.00  0.00    +0.000 C 
ATOM      9  C   UNL     1     -63.240 -46.299 -51.207  0.00  0.00    +0.000 C 
ATOM     10  C   UNL     1     -65.070 -49.303 -54.370  0.00  0.00    +0.000 C 
ATOM     11  C   UNL     1     -65.599 -46.933 -54.968  0.00  0.00    +0.000 C 
ATOM     12  C   UNL     1     -66.137 -45.975 -54.281  0.00  0.00    +0.000 C 
ATOM     13  C   UNL     1     -65.461 -50.359 -53.332  0.00  0.00    +0.000 C 
ATOM     14  C   UNL     1     -64.970 -45.178 -49.871  0.00  0.00    +0.000 C 
ATOM     15  C   UNL     1     -67.717 -45.406 -52.502  0.00  0.00    +0.000 C 
ATOM     16  C   UNL     1     -62.402 -46.394 -50.057  0.00  0.00    +0.000 C 
ATOM     17  C   UNL     1     -67.097 -50.450 -51.618  0.00  0.00    +0.000 C 
ATOM     18  C   UNL     1     -64.967 -45.040 -48.337  0.00  0.00    +0.000 C 
ATOM     19  C   UNL     1     -69.156 -45.622 -52.027  0.00  0.00    +0.000 C 
ATOM     20  C   UNL     1     -62.100 -46.325 -48.896  0.00  0.00    +0.000 C 
ATOM     21  C   UNL     1     -63.956 -45.329 -47.229  0.00  0.00    +0.000 C 
ATOM     22  C   UNL     1     -68.596 -50.492 -51.311  0.00  0.00    +0.000 C 
ATOM     23  C   UNL     1     -62.581 -45.928 -47.499  0.00  0.00    +0.000 C 
ATOM     24  C   UNL     1     -70.428 -46.321 -51.556  0.00  0.00    +0.000 C 
ATOM     25  C   UNL     1     -70.020 -50.003 -51.063  0.00  0.00    +0.000 C 
ATOM     26  C   UNL     1     -70.982 -48.828 -51.012  0.00  0.00    +0.000 C 
ATOM     27  C   UNL     1     -70.999 -47.326 -51.244  0.00  0.00    +0.000 C 
ENDROOT
BRANCH  11  30
ATOM     28  N   UNL     1     -67.075 -47.370 -56.842  0.00  0.00    +0.000 NA
ATOM     29  N   UNL     1     -63.464 -46.620 -57.136  0.00  0.00    +0.000 N 
ATOM     30  C   UNL     1     -65.833 -47.076 -56.398  0.00  0.00    +0.000 A 
ATOM     31  C   UNL     1     -64.794 -46.927 -57.313  0.00  0.00    +0.000 A 
ATOM     32  C   UNL     1     -64.999 -47.075 -58.686  0.00  0.00    +0.000 A 
ATOM     33  C   UNL     1     -67.266 -47.513 -58.172  0.00  0.00    +0.000 A 
ATOM     34  C   UNL     1     -66.288 -47.385 -59.148  0.00  0.00    +0.000 A 
ATOM     35  C   UNL     1     -63.744 -46.858 -59.334  0.00  0.00    +0.000 A 
ATOM     36  C   UNL     1     -62.807 -46.576 -58.342  0.00  0.00    +0.000 A 
ATOM     37  C   UNL     1     -63.324 -46.872 -60.677  0.00  0.00    +0.000 A 
ATOM     38  C   UNL     1     -61.464 -46.304 -58.620  0.00  0.00    +0.000 A 
ATOM     39  C   UNL     1     -61.986 -46.605 -60.975  0.00  0.00    +0.000 A 
ATOM     40  C   UNL     1     -61.076 -46.326 -59.961  0.00  0.00    +0.000 A 
ATOM     41  H   UNL     1     -63.027 -46.441 -56.242  0.00  0.00    +0.000 HD
ENDBRANCH  11  30
BRANCH   7  42
ATOM     42  O   UNL     1     -65.902 -44.025 -53.050  0.00  0.00    +0.000 OA
ATOM     43  H   UNL     1     -64.943 -44.044 -52.895  0.00  0.00    +0.000 HD
ENDBRANCH   7  42
TORSDOF 2
ENDMDL
MODEL 2
REMARK VINA RESULT:      -7.6     11.486     15.264
REMARK  Name = 6509753_ManzamineA.pdbqt.pdb
REMARK  2 active torsions:
REMARK  status: ('A' for Active; 'I' for Inactive)
REMARK    1  A    between atoms: C_7  and  O_42
REMARK    2  A    between atoms: C_11  and  C_30
REMARK                            x       y       z     vdW  Elec       q    Type
REMARK                         _______ _______ _______ _____ _____    ______ ____
ROOT
ATOM      1  N   UNL     1     -59.603 -60.377 -60.411  0.00  0.00    +0.000 N 
ATOM      2  N   UNL     1     -61.698 -56.005 -59.252  0.00  0.00    +0.000 N 
ATOM      3  C   UNL     1     -59.723 -58.095 -59.320  0.00  0.00    +0.000 C 
ATOM      4  C   UNL     1     -59.903 -59.640 -59.156  0.00  0.00    +0.000 C 
ATOM      5  C   UNL     1     -58.814 -57.312 -58.285  0.00  0.00    +0.000 C 
ATOM      6  C   UNL     1     -59.092 -58.141 -60.635  0.00  0.00    +0.000 C 
ATOM      7  C   UNL     1     -59.506 -60.297 -57.832  0.00  0.00    +0.000 C 
ATOM      8  C   UNL     1     -61.017 -57.332 -59.411  0.00  0.00    +0.000 C 
ATOM      9  C   UNL     1     -59.183 -59.335 -61.375  0.00  0.00    +0.000 C 
ATOM     10  C   UNL     1     -59.245 -55.954 -58.066  0.00  0.00    +0.000 C 
ATOM     11  C   UNL     1     -58.260 -58.072 -57.173  0.00  0.00    +0.000 C 
ATOM     12  C   UNL     1     -58.705 -59.289 -57.166  0.00  0.00    +0.000 C 
ATOM     13  C   UNL     1     -60.604 -55.388 -58.489  0.00  0.00    +0.000 C 
ATOM     14  C   UNL     1     -60.749 -61.162 -60.876  0.00  0.00    +0.000 C 
ATOM     15  C   UNL     1     -60.694 -60.712 -57.092  0.00  0.00    +0.000 C 
ATOM     16  C   UNL     1     -59.503 -59.430 -62.762  0.00  0.00    +0.000 C 
ATOM     17  C   UNL     1     -62.830 -56.191 -58.359  0.00  0.00    +0.000 C 
ATOM     18  C   UNL     1     -61.759 -61.771 -61.866  0.00  0.00    +0.000 C 
ATOM     19  C   UNL     1     -61.987 -60.969 -56.316  0.00  0.00    +0.000 C 
ATOM     20  C   UNL     1     -60.098 -59.793 -63.741  0.00  0.00    +0.000 C 
ATOM     21  C   UNL     1     -62.017 -61.635 -63.366  0.00  0.00    +0.000 C 
ATOM     22  C   UNL     1     -63.979 -56.569 -57.421  0.00  0.00    +0.000 C 
ATOM     23  C   UNL     1     -61.213 -60.702 -64.263  0.00  0.00    +0.000 C 
ATOM     24  C   UNL     1     -63.358 -60.742 -55.684  0.00  0.00    +0.000 C 
ATOM     25  C   UNL     1     -64.840 -57.404 -56.477  0.00  0.00    +0.000 C 
ATOM     26  C   UNL     1     -65.022 -58.713 -55.727  0.00  0.00    +0.000 C 
ATOM     27  C   UNL     1     -64.304 -60.032 -55.498  0.00  0.00    +0.000 C 
ENDROOT
BRANCH  11  30
ATOM     28  N   UNL     1     -56.146 -57.310 -56.259  0.00  0.00    +0.000 NA
ATOM     29  N   UNL     1     -59.336 -57.411 -54.387  0.00  0.00    +0.000 N 
ATOM     30  C   UNL     1     -57.465 -57.541 -56.075  0.00  0.00    +0.000 A 
ATOM     31  C   UNL     1     -58.040 -57.281 -54.833  0.00  0.00    +0.000 A 
ATOM     32  C   UNL     1     -57.289 -56.786 -53.766  0.00  0.00    +0.000 A 
ATOM     33  C   UNL     1     -55.425 -56.831 -55.222  0.00  0.00    +0.000 A 
ATOM     34  C   UNL     1     -55.918 -56.549 -53.956  0.00  0.00    +0.000 A 
ATOM     35  C   UNL     1     -58.172 -56.630 -52.654  0.00  0.00    +0.000 A 
ATOM     36  C   UNL     1     -59.441 -57.027 -53.071  0.00  0.00    +0.000 A 
ATOM     37  C   UNL     1     -58.004 -56.183 -51.330  0.00  0.00    +0.000 A 
ATOM     38  C   UNL     1     -60.560 -57.001 -52.234  0.00  0.00    +0.000 A 
ATOM     39  C   UNL     1     -59.111 -56.151 -50.478  0.00  0.00    +0.000 A 
ATOM     40  C   UNL     1     -60.364 -56.553 -50.926  0.00  0.00    +0.000 A 
ATOM     41  H   UNL     1     -60.110 -57.735 -54.950  0.00  0.00    +0.000 HD
ENDBRANCH  11  30
BRANCH   7  42
ATOM     42  O   UNL     1     -58.680 -61.429 -58.056  0.00  0.00    +0.000 OA
ATOM     43  H   UNL     1     -57.929 -61.339 -57.445  0.00  0.00    +0.000 HD
ENDBRANCH   7  42
TORSDOF 2
ENDMDL
MODEL 3
REMARK VINA RESULT:      -7.3     21.559     24.746
REMARK  Name = 6509753_ManzamineA.pdbqt.pdb
REMARK  2 active torsions:
REMARK  status: ('A' for Active; 'I' for Inactive)
REMARK    1  A    between atoms: C_7  and  O_42
REMARK    2  A    between atoms: C_11  and  C_30
REMARK                            x       y       z     vdW  Elec       q    Type
REMARK                         _______ _______ _______ _____ _____    ______ ____
ROOT
ATOM      1  N   UNL     1     -65.315 -61.463 -70.741  0.00  0.00    +0.000 N 
ATOM      2  N   UNL     1     -67.689 -64.771 -73.616  0.00  0.00    +0.000 N 
ATOM      3  C   UNL     1     -66.143 -62.447 -72.922  0.00  0.00    +0.000 C 
ATOM      4  C   UNL     1     -66.374 -61.403 -71.781  0.00  0.00    +0.000 C 
ATOM      5  C   UNL     1     -66.149 -61.955 -74.428  0.00  0.00    +0.000 C 
ATOM      6  C   UNL     1     -64.801 -62.846 -72.511  0.00  0.00    +0.000 C 
ATOM      7  C   UNL     1     -66.944 -60.028 -72.138  0.00  0.00    +0.000 C 
ATOM      8  C   UNL     1     -67.062 -63.637 -72.861  0.00  0.00    +0.000 C 
ATOM      9  C   UNL     1     -64.372 -62.501 -71.216  0.00  0.00    +0.000 C 
ATOM     10  C   UNL     1     -66.628 -62.955 -75.349  0.00  0.00    +0.000 C 
ATOM     11  C   UNL     1     -66.460 -60.553 -74.673  0.00  0.00    +0.000 C 
ATOM     12  C   UNL     1     -66.789 -59.946 -73.576  0.00  0.00    +0.000 C 
ATOM     13  C   UNL     1     -67.375 -64.230 -74.947  0.00  0.00    +0.000 C 
ATOM     14  C   UNL     1     -65.863 -61.750 -69.413  0.00  0.00    +0.000 C 
ATOM     15  C   UNL     1     -68.321 -59.909 -71.670  0.00  0.00    +0.000 C 
ATOM     16  C   UNL     1     -63.697 -63.368 -70.306  0.00  0.00    +0.000 C 
ATOM     17  C   UNL     1     -69.127 -64.694 -73.420  0.00  0.00    +0.000 C 
ATOM     18  C   UNL     1     -65.964 -62.383 -68.013  0.00  0.00    +0.000 C 
ATOM     19  C   UNL     1     -69.803 -59.927 -71.289  0.00  0.00    +0.000 C 
ATOM     20  C   UNL     1     -63.496 -63.959 -69.279  0.00  0.00    +0.000 C 
ATOM     21  C   UNL     1     -65.170 -63.438 -67.244  0.00  0.00    +0.000 C 
ATOM     22  C   UNL     1     -70.607 -64.470 -73.096  0.00  0.00    +0.000 C 
ATOM     23  C   UNL     1     -63.982 -64.179 -67.845  0.00  0.00    +0.000 C 
ATOM     24  C   UNL     1     -71.252 -60.390 -71.159  0.00  0.00    +0.000 C 
ATOM     25  C   UNL     1     -71.869 -63.797 -72.566  0.00  0.00    +0.000 C 
ATOM     26  C   UNL     1     -72.490 -62.584 -71.893  0.00  0.00    +0.000 C 
ATOM     27  C   UNL     1     -72.092 -61.221 -71.354  0.00  0.00    +0.000 C 
ENDROOT
BRANCH  11  30
ATOM     28  N   UNL     1     -67.747 -59.289 -76.294  0.00  0.00    +0.000 NA
ATOM     29  N   UNL     1     -64.286 -60.484 -76.824  0.00  0.00    +0.000 N 
ATOM     30  C   UNL     1     -66.591 -59.911 -75.973  0.00  0.00    +0.000 A 
ATOM     31  C   UNL     1     -65.549 -59.941 -76.897  0.00  0.00    +0.000 A 
ATOM     32  C   UNL     1     -65.665 -59.344 -78.153  0.00  0.00    +0.000 A 
ATOM     33  C   UNL     1     -67.852 -58.713 -77.511  0.00  0.00    +0.000 A 
ATOM     34  C   UNL     1     -66.866 -58.700 -78.488  0.00  0.00    +0.000 A 
ATOM     35  C   UNL     1     -64.431 -59.553 -78.843  0.00  0.00    +0.000 A 
ATOM     36  C   UNL     1     -63.592 -60.266 -77.990  0.00  0.00    +0.000 A 
ATOM     37  C   UNL     1     -63.954 -59.195 -80.118  0.00  0.00    +0.000 A 
ATOM     38  C   UNL     1     -62.292 -60.643 -78.341  0.00  0.00    +0.000 A 
ATOM     39  C   UNL     1     -62.658 -59.563 -80.487  0.00  0.00    +0.000 A 
ATOM     40  C   UNL     1     -61.845 -60.274 -79.611  0.00  0.00    +0.000 A 
ATOM     41  H   UNL     1     -63.912 -60.970 -76.020  0.00  0.00    +0.000 HD
ENDBRANCH  11  30
BRANCH   7  42
ATOM     42  O   UNL     1     -66.166 -58.991 -71.558  0.00  0.00    +0.000 OA
ATOM     43  H   UNL     1     -66.123 -58.283 -72.223  0.00  0.00    +0.000 HD
ENDBRANCH   7  42
TORSDOF 2
ENDMDL
MODEL 4
REMARK VINA RESULT:      -7.3     26.982     31.123
REMARK  Name = 6509753_ManzamineA.pdbqt.pdb
REMARK  2 active torsions:
REMARK  status: ('A' for Active; 'I' for Inactive)
REMARK    1  A    between atoms: C_7  and  O_42
REMARK    2  A    between atoms: C_11  and  C_30
REMARK                            x       y       z     vdW  Elec       q    Type
REMARK                         _______ _______ _______ _____ _____    ______ ____
ROOT
ATOM      1  N   UNL     1     -72.116 -61.080 -24.720  0.00  0.00    +0.000 N 
ATOM      2  N   UNL     1     -76.868 -59.908 -25.664  0.00  0.00    +0.000 N 
ATOM      3  C   UNL     1     -74.009 -59.958 -25.972  0.00  0.00    +0.000 C 
ATOM      4  C   UNL     1     -72.889 -59.823 -24.890  0.00  0.00    +0.000 C 
ATOM      5  C   UNL     1     -74.085 -58.888 -27.139  0.00  0.00    +0.000 C 
ATOM      6  C   UNL     1     -73.585 -61.257 -26.485  0.00  0.00    +0.000 C 
ATOM      7  C   UNL     1     -72.130 -58.499 -24.769  0.00  0.00    +0.000 C 
ATOM      8  C   UNL     1     -75.399 -60.070 -25.407  0.00  0.00    +0.000 C 
ATOM      9  C   UNL     1     -72.688 -62.017 -25.712  0.00  0.00    +0.000 C 
ATOM     10  C   UNL     1     -75.427 -58.660 -27.612  0.00  0.00    +0.000 C 
ATOM     11  C   UNL     1     -73.148 -57.774 -27.087  0.00  0.00    +0.000 C 
ATOM     12  C   UNL     1     -72.449 -57.797 -25.996  0.00  0.00    +0.000 C 
ATOM     13  C   UNL     1     -76.699 -59.108 -26.886  0.00  0.00    +0.000 C 
ATOM     14  C   UNL     1     -72.183 -61.586 -23.346  0.00  0.00    +0.000 C 
ATOM     15  C   UNL     1     -72.520 -57.796 -23.551  0.00  0.00    +0.000 C 
ATOM     16  C   UNL     1     -72.803 -63.413 -25.441  0.00  0.00    +0.000 C 
ATOM     17  C   UNL     1     -77.408 -59.047 -24.625  0.00  0.00    +0.000 C 
ATOM     18  C   UNL     1     -72.307 -62.611 -22.203  0.00  0.00    +0.000 C 
ATOM     19  C   UNL     1     -73.101 -57.056 -22.343  0.00  0.00    +0.000 C 
ATOM     20  C   UNL     1     -72.870 -64.412 -24.776  0.00  0.00    +0.000 C 
ATOM     21  C   UNL     1     -72.567 -64.114 -22.124  0.00  0.00    +0.000 C 
ATOM     22  C   UNL     1     -77.805 -58.144 -23.454  0.00  0.00    +0.000 C 
ATOM     23  C   UNL     1     -72.820 -64.976 -23.355  0.00  0.00    +0.000 C 
ATOM     24  C   UNL     1     -74.114 -56.456 -21.372  0.00  0.00    +0.000 C 
ATOM     25  C   UNL     1     -77.665 -57.235 -22.236  0.00  0.00    +0.000 C 
ATOM     26  C   UNL     1     -76.735 -56.510 -21.278  0.00  0.00    +0.000 C 
ATOM     27  C   UNL     1     -75.252 -56.283 -21.043  0.00  0.00    +0.000 C 
ENDROOT
BRANCH  11  30
ATOM     28  N   UNL     1     -73.801 -55.530 -27.735  0.00  0.00    +0.000 NA
ATOM     29  N   UNL     1     -71.524 -57.704 -29.678  0.00  0.00    +0.000 N 
ATOM     30  C   UNL     1     -73.093 -56.648 -28.009  0.00  0.00    +0.000 A 
ATOM     31  C   UNL     1     -72.333 -56.711 -29.174  0.00  0.00    +0.000 A 
ATOM     32  C   UNL     1     -72.282 -55.646 -30.075  0.00  0.00    +0.000 A 
ATOM     33  C   UNL     1     -73.747 -54.503 -28.611  0.00  0.00    +0.000 A 
ATOM     34  C   UNL     1     -73.019 -54.486 -29.793  0.00  0.00    +0.000 A 
ATOM     35  C   UNL     1     -71.421 -56.032 -31.148  0.00  0.00    +0.000 A 
ATOM     36  C   UNL     1     -70.964 -57.319 -30.873  0.00  0.00    +0.000 A 
ATOM     37  C   UNL     1     -70.988 -55.398 -32.327  0.00  0.00    +0.000 A 
ATOM     38  C   UNL     1     -70.090 -58.013 -31.716  0.00  0.00    +0.000 A 
ATOM     39  C   UNL     1     -70.116 -56.075 -33.183  0.00  0.00    +0.000 A 
ATOM     40  C   UNL     1     -69.678 -57.359 -32.879  0.00  0.00    +0.000 A 
ATOM     41  H   UNL     1     -71.354 -58.594 -29.229  0.00  0.00    +0.000 HD
ENDBRANCH  11  30
BRANCH   7  42
ATOM     42  O   UNL     1     -70.727 -58.719 -24.747  0.00  0.00    +0.000 OA
ATOM     43  H   UNL     1     -70.535 -59.143 -23.894  0.00  0.00    +0.000 HD
ENDBRANCH   7  42
TORSDOF 2
ENDMDL
MODEL 5
REMARK VINA RESULT:      -7.3     35.132     40.564
REMARK  Name = 6509753_ManzamineA.pdbqt.pdb
REMARK  2 active torsions:
REMARK  status: ('A' for Active; 'I' for Inactive)
REMARK    1  A    between atoms: C_7  and  O_42
REMARK    2  A    between atoms: C_11  and  C_30
REMARK                            x       y       z     vdW  Elec       q    Type
REMARK                         _______ _______ _______ _____ _____    ______ ____
ROOT
ATOM      1  N   UNL     1     -64.545 -59.526 -12.577  0.00  0.00    +0.000 N 
ATOM      2  N   UNL     1     -60.663 -56.399 -12.505  0.00  0.00    +0.000 N 
ATOM      3  C   UNL     1     -63.337 -57.341 -12.996  0.00  0.00    +0.000 C 
ATOM      4  C   UNL     1     -63.818 -58.708 -13.582  0.00  0.00    +0.000 C 
ATOM      5  C   UNL     1     -63.700 -56.003 -13.764  0.00  0.00    +0.000 C 
ATOM      6  C   UNL     1     -64.071 -57.433 -11.737  0.00  0.00    +0.000 C 
ATOM      7  C   UNL     1     -64.306 -58.763 -15.032  0.00  0.00    +0.000 C 
ATOM      8  C   UNL     1     -61.860 -57.280 -12.712  0.00  0.00    +0.000 C 
ATOM      9  C   UNL     1     -64.583 -58.688 -11.358  0.00  0.00    +0.000 C 
ATOM     10  C   UNL     1     -62.708 -54.970 -13.603  0.00  0.00    +0.000 C 
ATOM     11  C   UNL     1     -64.397 -56.131 -15.036  0.00  0.00    +0.000 C 
ATOM     12  C   UNL     1     -64.518 -57.373 -15.384  0.00  0.00    +0.000 C 
ATOM     13  C   UNL     1     -61.294 -55.191 -13.056  0.00  0.00    +0.000 C 
ATOM     14  C   UNL     1     -63.906 -60.826 -12.360  0.00  0.00    +0.000 C 
ATOM     15  C   UNL     1     -63.336 -59.459 -15.871  0.00  0.00    +0.000 C 
ATOM     16  C   UNL     1     -64.493 -59.261 -10.054  0.00  0.00    +0.000 C 
ATOM     17  C   UNL     1     -59.627 -56.835 -13.427  0.00  0.00    +0.000 C 
ATOM     18  C   UNL     1     -63.372 -62.047 -11.588  0.00  0.00    +0.000 C 
ATOM     19  C   UNL     1     -62.198 -60.056 -16.702  0.00  0.00    +0.000 C 
ATOM     20  C   UNL     1     -64.226 -60.084  -9.221  0.00  0.00    +0.000 C 
ATOM     21  C   UNL     1     -63.252 -62.424 -10.112  0.00  0.00    +0.000 C 
ATOM     22  C   UNL     1     -58.653 -57.432 -14.446  0.00  0.00    +0.000 C 
ATOM     23  C   UNL     1     -63.674 -61.492  -8.983  0.00  0.00    +0.000 C 
ATOM     24  C   UNL     1     -60.801 -60.308 -17.262  0.00  0.00    +0.000 C 
ATOM     25  C   UNL     1     -58.133 -58.292 -15.594  0.00  0.00    +0.000 C 
ATOM     26  C   UNL     1     -58.445 -59.309 -16.679  0.00  0.00    +0.000 C 
ATOM     27  C   UNL     1     -59.628 -60.069 -17.256  0.00  0.00    +0.000 C 
ENDROOT
BRANCH  11  30
ATOM     28  N   UNL     1     -65.899 -54.352 -15.718  0.00  0.00    +0.000 NA
ATOM     29  N   UNL     1     -62.758 -55.241 -17.461  0.00  0.00    +0.000 N 
ATOM     30  C   UNL     1     -64.758 -55.045 -15.936  0.00  0.00    +0.000 A 
ATOM     31  C   UNL     1     -63.954 -54.717 -17.025  0.00  0.00    +0.000 A 
ATOM     32  C   UNL     1     -64.295 -53.689 -17.905  0.00  0.00    +0.000 A 
ATOM     33  C   UNL     1     -66.222 -53.358 -16.574  0.00  0.00    +0.000 A 
ATOM     34  C   UNL     1     -65.481 -52.972 -17.682  0.00  0.00    +0.000 A 
ATOM     35  C   UNL     1     -63.269 -53.614 -18.896  0.00  0.00    +0.000 A 
ATOM     36  C   UNL     1     -62.325 -54.593 -18.593  0.00  0.00    +0.000 A 
ATOM     37  C   UNL     1     -63.058 -52.797 -20.023  0.00  0.00    +0.000 A 
ATOM     38  C   UNL     1     -61.173 -54.803 -19.358  0.00  0.00    +0.000 A 
ATOM     39  C   UNL     1     -61.913 -52.992 -20.800  0.00  0.00    +0.000 A 
ATOM     40  C   UNL     1     -60.990 -53.977 -20.469  0.00  0.00    +0.000 A 
ATOM     41  H   UNL     1     -62.258 -55.993 -17.008  0.00  0.00    +0.000 HD
ENDBRANCH  11  30
BRANCH   7  42
ATOM     42  O   UNL     1     -65.557 -59.428 -15.120  0.00  0.00    +0.000 OA
ATOM     43  H   UNL     1     -66.232 -58.729 -15.152  0.00  0.00    +0.000 HD
ENDBRANCH   7  42
TORSDOF 2
ENDMDL
MODEL 6
REMARK VINA RESULT:      -7.2     20.559     24.564
REMARK  Name = 6509753_ManzamineA.pdbqt.pdb
REMARK  2 active torsions:
REMARK  status: ('A' for Active; 'I' for Inactive)
REMARK    1  A    between atoms: C_7  and  O_42
REMARK    2  A    between atoms: C_11  and  C_30
REMARK                            x       y       z     vdW  Elec       q    Type
REMARK                         _______ _______ _______ _____ _____    ______ ____
ROOT
ATOM      1  N   UNL     1     -71.800 -55.772 -28.829  0.00  0.00    +0.000 N 
ATOM      2  N   UNL     1     -74.087 -59.168 -31.672  0.00  0.00    +0.000 N 
ATOM      3  C   UNL     1     -71.932 -57.646 -30.526  0.00  0.00    +0.000 C 
ATOM      4  C   UNL     1     -71.824 -56.107 -30.276  0.00  0.00    +0.000 C 
ATOM      5  C   UNL     1     -70.885 -58.344 -31.489  0.00  0.00    +0.000 C 
ATOM      6  C   UNL     1     -71.716 -58.053 -29.141  0.00  0.00    +0.000 C 
ATOM      7  C   UNL     1     -70.962 -55.261 -31.217  0.00  0.00    +0.000 C 
ATOM      8  C   UNL     1     -73.294 -58.101 -30.977  0.00  0.00    +0.000 C 
ATOM      9  C   UNL     1     -71.844 -57.078 -28.134  0.00  0.00    +0.000 C 
ATOM     10  C   UNL     1     -71.429 -59.482 -32.187  0.00  0.00    +0.000 C 
ATOM     11  C   UNL     1     -69.921 -57.487 -32.164  0.00  0.00    +0.000 C 
ATOM     12  C   UNL     1     -70.159 -56.235 -31.928  0.00  0.00    +0.000 C 
ATOM     13  C   UNL     1     -72.920 -59.815 -32.291  0.00  0.00    +0.000 C 
ATOM     14  C   UNL     1     -72.903 -54.884 -28.451  0.00  0.00    +0.000 C 
ATOM     15  C   UNL     1     -71.803 -54.429 -32.071  0.00  0.00    +0.000 C 
ATOM     16  C   UNL     1     -72.540 -57.245 -26.900  0.00  0.00    +0.000 C 
ATOM     17  C   UNL     1     -74.864 -58.530 -32.721  0.00  0.00    +0.000 C 
ATOM     18  C   UNL     1     -74.058 -54.317 -27.605  0.00  0.00    +0.000 C 
ATOM     19  C   UNL     1     -72.757 -53.715 -33.031  0.00  0.00    +0.000 C 
ATOM     20  C   UNL     1     -73.336 -57.000 -26.034  0.00  0.00    +0.000 C 
ATOM     21  C   UNL     1     -74.764 -54.741 -26.318  0.00  0.00    +0.000 C 
ATOM     22  C   UNL     1     -75.616 -57.695 -33.762  0.00  0.00    +0.000 C 
ATOM     23  C   UNL     1     -74.407 -56.015 -25.560  0.00  0.00    +0.000 C 
ATOM     24  C   UNL     1     -73.899 -53.476 -34.016  0.00  0.00    +0.000 C 
ATOM     25  C   UNL     1     -76.027 -56.491 -34.604  0.00  0.00    +0.000 C 
ATOM     26  C   UNL     1     -75.783 -55.035 -34.966  0.00  0.00    +0.000 C 
ATOM     27  C   UNL     1     -74.842 -53.893 -34.624  0.00  0.00    +0.000 C 
ENDROOT
BRANCH  11  30
ATOM     28  N   UNL     1     -67.890 -58.680 -32.744  0.00  0.00    +0.000 NA
ATOM     29  N   UNL     1     -69.957 -56.754 -35.134  0.00  0.00    +0.000 N 
ATOM     30  C   UNL     1     -68.926 -57.907 -33.141  0.00  0.00    +0.000 A 
ATOM     31  C   UNL     1     -69.018 -57.513 -34.474  0.00  0.00    +0.000 A 
ATOM     32  C   UNL     1     -68.064 -57.895 -35.418  0.00  0.00    +0.000 A 
ATOM     33  C   UNL     1     -66.971 -59.045 -33.664  0.00  0.00    +0.000 A 
ATOM     34  C   UNL     1     -66.986 -58.694 -35.007  0.00  0.00    +0.000 A 
ATOM     35  C   UNL     1     -68.452 -57.332 -36.673  0.00  0.00    +0.000 A 
ATOM     36  C   UNL     1     -69.636 -56.627 -36.464  0.00  0.00    +0.000 A 
ATOM     37  C   UNL     1     -67.903 -57.363 -37.968  0.00  0.00    +0.000 A 
ATOM     38  C   UNL     1     -70.307 -55.947 -37.485  0.00  0.00    +0.000 A 
ATOM     39  C   UNL     1     -68.558 -56.689 -39.002  0.00  0.00    +0.000 A 
ATOM     40  C   UNL     1     -69.738 -55.995 -38.760  0.00  0.00    +0.000 A 
ATOM     41  H   UNL     1     -70.779 -56.351 -34.705  0.00  0.00    +0.000 HD
ENDBRANCH  11  30
BRANCH   7  42
ATOM     42  O   UNL     1     -70.079 -54.426 -30.481  0.00  0.00    +0.000 OA
ATOM     43  H   UNL     1     -70.530 -54.232 -29.641  0.00  0.00    +0.000 HD
ENDBRANCH   7  42
TORSDOF 2
ENDMDL
MODEL 7
REMARK VINA RESULT:      -7.2     33.658     39.476
REMARK  Name = 6509753_ManzamineA.pdbqt.pdb
REMARK  2 active torsions:
REMARK  status: ('A' for Active; 'I' for Inactive)
REMARK    1  A    between atoms: C_7  and  O_42
REMARK    2  A    between atoms: C_11  and  C_30
REMARK                            x       y       z     vdW  Elec       q    Type
REMARK                         _______ _______ _______ _____ _____    ______ ____
ROOT
ATOM      1  N   UNL     1     -63.967 -53.679 -18.601  0.00  0.00    +0.000 N 
ATOM      2  N   UNL     1     -60.011 -53.671 -15.568  0.00  0.00    +0.000 N 
ATOM      3  C   UNL     1     -62.399 -54.629 -16.854  0.00  0.00    +0.000 C 
ATOM      4  C   UNL     1     -63.740 -53.880 -17.146  0.00  0.00    +0.000 C 
ATOM      5  C   UNL     1     -62.421 -55.913 -15.926  0.00  0.00    +0.000 C 
ATOM      6  C   UNL     1     -62.108 -54.992 -18.238  0.00  0.00    +0.000 C 
ATOM      7  C   UNL     1     -64.960 -54.174 -16.269  0.00  0.00    +0.000 C 
ATOM      8  C   UNL     1     -61.303 -53.743 -16.327  0.00  0.00    +0.000 C 
ATOM      9  C   UNL     1     -62.813 -54.330 -19.260  0.00  0.00    +0.000 C 
ATOM     10  C   UNL     1     -61.204 -56.090 -15.175  0.00  0.00    +0.000 C 
ATOM     11  C   UNL     1     -63.693 -56.278 -15.319  0.00  0.00    +0.000 C 
ATOM     12  C   UNL     1     -64.607 -55.395 -15.574  0.00  0.00    +0.000 C 
ATOM     13  C   UNL     1     -60.124 -55.020 -14.991  0.00  0.00    +0.000 C 
ATOM     14  C   UNL     1     -64.101 -52.262 -18.946  0.00  0.00    +0.000 C 
ATOM     15  C   UNL     1     -65.245 -53.041 -15.395  0.00  0.00    +0.000 C 
ATOM     16  C   UNL     1     -62.239 -53.800 -20.455  0.00  0.00    +0.000 C 
ATOM     17  C   UNL     1     -60.177 -52.702 -14.499  0.00  0.00    +0.000 C 
ATOM     18  C   UNL     1     -63.916 -50.961 -19.749  0.00  0.00    +0.000 C 
ATOM     19  C   UNL     1     -65.376 -51.879 -14.408  0.00  0.00    +0.000 C 
ATOM     20  C   UNL     1     -61.976 -52.975 -21.287  0.00  0.00    +0.000 C 
ATOM     21  C   UNL     1     -63.118 -50.562 -20.990  0.00  0.00    +0.000 C 
ATOM     22  C   UNL     1     -60.522 -51.646 -13.444  0.00  0.00    +0.000 C 
ATOM     23  C   UNL     1     -62.204 -51.529 -21.732  0.00  0.00    +0.000 C 
ATOM     24  C   UNL     1     -65.008 -50.816 -13.376  0.00  0.00    +0.000 C 
ATOM     25  C   UNL     1     -61.352 -50.674 -12.612  0.00  0.00    +0.000 C 
ATOM     26  C   UNL     1     -62.725 -50.102 -12.298  0.00  0.00    +0.000 C 
ATOM     27  C   UNL     1     -64.177 -50.265 -12.713  0.00  0.00    +0.000 C 
ENDROOT
BRANCH  11  30
ATOM     28  N   UNL     1     -64.038 -57.099 -13.063  0.00  0.00    +0.000 NA
ATOM     29  N   UNL     1     -63.940 -59.229 -16.086  0.00  0.00    +0.000 N 
ATOM     30  C   UNL     1     -63.922 -57.369 -14.382  0.00  0.00    +0.000 A 
ATOM     31  C   UNL     1     -64.009 -58.688 -14.823  0.00  0.00    +0.000 A 
ATOM     32  C   UNL     1     -64.213 -59.745 -13.936  0.00  0.00    +0.000 A 
ATOM     33  C   UNL     1     -64.236 -58.128 -12.210  0.00  0.00    +0.000 A 
ATOM     34  C   UNL     1     -64.330 -59.466 -12.565  0.00  0.00    +0.000 A 
ATOM     35  C   UNL     1     -64.256 -60.949 -14.704  0.00  0.00    +0.000 A 
ATOM     36  C   UNL     1     -64.083 -60.596 -16.041  0.00  0.00    +0.000 A 
ATOM     37  C   UNL     1     -64.429 -62.308 -14.381  0.00  0.00    +0.000 A 
ATOM     38  C   UNL     1     -64.075 -61.531 -17.081  0.00  0.00    +0.000 A 
ATOM     39  C   UNL     1     -64.423 -63.257 -15.406  0.00  0.00    +0.000 A 
ATOM     40  C   UNL     1     -64.250 -62.871 -16.730  0.00  0.00    +0.000 A 
ATOM     41  H   UNL     1     -63.812 -58.697 -16.936  0.00  0.00    +0.000 HD
ENDBRANCH  11  30
BRANCH   7  42
ATOM     42  O   UNL     1     -66.103 -54.444 -17.067  0.00  0.00    +0.000 OA
ATOM     43  H   UNL     1     -66.842 -54.564 -16.446  0.00  0.00    +0.000 HD
ENDBRANCH   7  42
TORSDOF 2
ENDMDL
MODEL 8
REMARK VINA RESULT:      -7.1     33.939     39.924
REMARK  Name = 6509753_ManzamineA.pdbqt.pdb
REMARK  2 active torsions:
REMARK  status: ('A' for Active; 'I' for Inactive)
REMARK    1  A    between atoms: C_7  and  O_42
REMARK    2  A    between atoms: C_11  and  C_30
REMARK                            x       y       z     vdW  Elec       q    Type
REMARK                         _______ _______ _______ _____ _____    ______ ____
ROOT
ATOM      1  N   UNL     1     -63.929 -53.476 -18.947  0.00  0.00    +0.000 N 
ATOM      2  N   UNL     1     -59.984 -54.077 -15.961  0.00  0.00    +0.000 N 
ATOM      3  C   UNL     1     -62.435 -54.717 -17.324  0.00  0.00    +0.000 C 
ATOM      4  C   UNL     1     -63.718 -53.847 -17.525  0.00  0.00    +0.000 C 
ATOM      5  C   UNL     1     -62.550 -56.088 -16.538  0.00  0.00    +0.000 C 
ATOM      6  C   UNL     1     -62.171 -54.950 -18.741  0.00  0.00    +0.000 C 
ATOM      7  C   UNL     1     -64.956 -54.144 -16.675  0.00  0.00    +0.000 C 
ATOM      8  C   UNL     1     -61.277 -53.974 -16.713  0.00  0.00    +0.000 C 
ATOM      9  C   UNL     1     -62.825 -54.134 -19.682  0.00  0.00    +0.000 C 
ATOM     10  C   UNL     1     -61.349 -56.432 -15.819  0.00  0.00    +0.000 C 
ATOM     11  C   UNL     1     -63.846 -56.424 -15.964  0.00  0.00    +0.000 C 
ATOM     12  C   UNL     1     -64.693 -55.455 -16.116  0.00  0.00    +0.000 C 
ATOM     13  C   UNL     1     -60.195 -55.468 -15.531  0.00  0.00    +0.000 C 
ATOM     14  C   UNL     1     -63.961 -52.024 -19.139  0.00  0.00    +0.000 C 
ATOM     15  C   UNL     1     -65.159 -53.093 -15.683  0.00  0.00    +0.000 C 
ATOM     16  C   UNL     1     -62.215 -53.523 -20.817  0.00  0.00    +0.000 C 
ATOM     17  C   UNL     1     -60.080 -53.218 -14.793  0.00  0.00    +0.000 C 
ATOM     18  C   UNL     1     -63.681 -50.661 -19.800  0.00  0.00    +0.000 C 
ATOM     19  C   UNL     1     -65.206 -52.037 -14.577  0.00  0.00    +0.000 C 
ATOM     20  C   UNL     1     -61.892 -52.634 -21.558  0.00  0.00    +0.000 C 
ATOM     21  C   UNL     1     -62.857 -50.190 -20.997  0.00  0.00    +0.000 C 
ATOM     22  C   UNL     1     -60.347 -52.259 -13.629  0.00  0.00    +0.000 C 
ATOM     23  C   UNL     1     -62.015 -51.136 -21.845  0.00  0.00    +0.000 C 
ATOM     24  C   UNL     1     -64.761 -51.120 -13.440  0.00  0.00    +0.000 C 
ATOM     25  C   UNL     1     -61.105 -51.324 -12.692  0.00  0.00    +0.000 C 
ATOM     26  C   UNL     1     -62.433 -50.691 -12.309  0.00  0.00    +0.000 C 
ATOM     27  C   UNL     1     -63.893 -50.704 -12.728  0.00  0.00    +0.000 C 
ENDROOT
BRANCH  11  30
ATOM     28  N   UNL     1     -64.503 -58.748 -15.747  0.00  0.00    +0.000 NA
ATOM     29  N   UNL     1     -63.774 -56.492 -12.907  0.00  0.00    +0.000 N 
ATOM     30  C   UNL     1     -64.153 -57.589 -15.147  0.00  0.00    +0.000 A 
ATOM     31  C   UNL     1     -64.106 -57.523 -13.756  0.00  0.00    +0.000 A 
ATOM     32  C   UNL     1     -64.413 -58.627 -12.959  0.00  0.00    +0.000 A 
ATOM     33  C   UNL     1     -64.799 -59.812 -14.969  0.00  0.00    +0.000 A 
ATOM     34  C   UNL     1     -64.779 -59.830 -13.581  0.00  0.00    +0.000 A 
ATOM     35  C   UNL     1     -64.265 -58.226 -11.595  0.00  0.00    +0.000 A 
ATOM     36  C   UNL     1     -63.866 -56.891 -11.595  0.00  0.00    +0.000 A 
ATOM     37  C   UNL     1     -64.432 -58.883 -10.362  0.00  0.00    +0.000 A 
ATOM     38  C   UNL     1     -63.622 -56.170 -10.421  0.00  0.00    +0.000 A 
ATOM     39  C   UNL     1     -64.194 -58.179  -9.179  0.00  0.00    +0.000 A 
ATOM     40  C   UNL     1     -63.796 -56.847  -9.213  0.00  0.00    +0.000 A 
ATOM     41  H   UNL     1     -63.491 -55.568 -13.203  0.00  0.00    +0.000 HD
ENDBRANCH  11  30
BRANCH   7  42
ATOM     42  O   UNL     1     -66.116 -54.244 -17.488  0.00  0.00    +0.000 OA
ATOM     43  H   UNL     1     -66.418 -55.165 -17.413  0.00  0.00    +0.000 HD
ENDBRANCH   7  42
TORSDOF 2
ENDMDL
MODEL 9
REMARK VINA RESULT:      -7.1     44.219     46.994
REMARK  Name = 6509753_ManzamineA.pdbqt.pdb
REMARK  2 active torsions:
REMARK  status: ('A' for Active; 'I' for Inactive)
REMARK    1  A    between atoms: C_7  and  O_42
REMARK    2  A    between atoms: C_11  and  C_30
REMARK                            x       y       z     vdW  Elec       q    Type
REMARK                         _______ _______ _______ _____ _____    ______ ____
ROOT
ATOM      1  N   UNL     1     -53.992 -71.451 -89.493  0.00  0.00    +0.000 N 
ATOM      2  N   UNL     1     -51.095 -72.710 -93.349  0.00  0.00    +0.000 N 
ATOM      3  C   UNL     1     -52.960 -71.174 -91.788  0.00  0.00    +0.000 C 
ATOM      4  C   UNL     1     -54.190 -71.654 -90.951  0.00  0.00    +0.000 C 
ATOM      5  C   UNL     1     -53.193 -70.173 -92.994  0.00  0.00    +0.000 C 
ATOM      6  C   UNL     1     -52.262 -70.511 -90.690  0.00  0.00    +0.000 C 
ATOM      7  C   UNL     1     -55.598 -71.444 -91.515  0.00  0.00    +0.000 C 
ATOM      8  C   UNL     1     -52.106 -72.292 -92.323  0.00  0.00    +0.000 C 
ATOM      9  C   UNL     1     -52.668 -70.801 -89.374  0.00  0.00    +0.000 C 
ATOM     10  C   UNL     1     -52.241 -70.342 -94.063  0.00  0.00    +0.000 C 
ATOM     11  C   UNL     1     -54.569 -69.820 -93.315  0.00  0.00    +0.000 C 
ATOM     12  C   UNL     1     -55.408 -70.492 -92.590  0.00  0.00    +0.000 C 
ATOM     13  C   UNL     1     -51.311 -71.549 -94.225  0.00  0.00    +0.000 C 
ATOM     14  C   UNL     1     -54.084 -72.708 -88.745  0.00  0.00    +0.000 C 
ATOM     15  C   UNL     1     -56.176 -72.718 -91.930  0.00  0.00    +0.000 C 
ATOM     16  C   UNL     1     -51.796 -71.078 -88.279  0.00  0.00    +0.000 C 
ATOM     17  C   UNL     1     -51.609 -73.892 -94.022  0.00  0.00    +0.000 C 
ATOM     18  C   UNL     1     -53.732 -73.776 -87.693  0.00  0.00    +0.000 C 
ATOM     19  C   UNL     1     -56.641 -74.067 -92.484  0.00  0.00    +0.000 C 
ATOM     20  C   UNL     1     -51.339 -71.692 -87.353  0.00  0.00    +0.000 C 
ATOM     21  C   UNL     1     -52.627 -73.943 -86.651  0.00  0.00    +0.000 C 
ATOM     22  C   UNL     1     -52.294 -75.129 -94.610  0.00  0.00    +0.000 C 
ATOM     23  C   UNL     1     -51.493 -72.939 -86.479  0.00  0.00    +0.000 C 
ATOM     24  C   UNL     1     -56.638 -75.393 -93.240  0.00  0.00    +0.000 C 
ATOM     25  C   UNL     1     -53.374 -76.171 -94.885  0.00  0.00    +0.000 C 
ATOM     26  C   UNL     1     -54.803 -76.631 -94.649  0.00  0.00    +0.000 C 
ATOM     27  C   UNL     1     -56.062 -76.191 -93.921  0.00  0.00    +0.000 C 
ENDROOT
BRANCH  11  30
ATOM     28  N   UNL     1     -55.570 -69.558 -95.508  0.00  0.00    +0.000 NA
ATOM     29  N   UNL     1     -54.340 -66.772 -93.408  0.00  0.00    +0.000 N 
ATOM     30  C   UNL     1     -55.011 -68.983 -94.420  0.00  0.00    +0.000 A 
ATOM     31  C   UNL     1     -54.855 -67.599 -94.380  0.00  0.00    +0.000 A 
ATOM     32  C   UNL     1     -55.260 -66.784 -95.438  0.00  0.00    +0.000 A 
ATOM     33  C   UNL     1     -55.959 -68.763 -96.529  0.00  0.00    +0.000 A 
ATOM     34  C   UNL     1     -55.837 -67.381 -96.570  0.00  0.00    +0.000 A 
ATOM     35  C   UNL     1     -54.963 -65.434 -95.078  0.00  0.00    +0.000 A 
ATOM     36  C   UNL     1     -54.391 -65.457 -93.808  0.00  0.00    +0.000 A 
ATOM     37  C   UNL     1     -55.134 -64.193 -95.719  0.00  0.00    +0.000 A 
ATOM     38  C   UNL     1     -53.978 -64.302 -93.137  0.00  0.00    +0.000 A 
ATOM     39  C   UNL     1     -54.727 -63.027 -95.066  0.00  0.00    +0.000 A 
ATOM     40  C   UNL     1     -54.161 -63.086 -93.798  0.00  0.00    +0.000 A 
ATOM     41  H   UNL     1     -53.981 -67.083 -92.516  0.00  0.00    +0.000 HD
ENDBRANCH  11  30
BRANCH   7  42
ATOM     42  O   UNL     1     -56.446 -70.843 -90.547  0.00  0.00    +0.000 OA
ATOM     43  H   UNL     1     -56.350 -71.374 -89.739  0.00  0.00    +0.000 HD
ENDBRANCH   7  42
TORSDOF 2
ENDMDL
