MODEL 1
REMARK VINA RESULT:      -3.7      0.000      0.000
REMARK  Name = 67499_Pyrazolo.pdbqt.pdb
REMARK  0 active torsions:
REMARK  status: ('A' for Active; 'I' for Inactive)
REMARK                            x       y       z     vdW  Elec       q    Type
REMARK                         _______ _______ _______ _____ _____    ______ ____
ROOT
ATOM      1  N   UNL     1     -60.811 -45.432 -57.952  0.00  0.00    +0.000 N 
ATOM      2  N   UNL     1     -61.585 -44.836 -57.020  0.00  0.00    +0.000 NA
ATOM      3  N   UNL     1     -61.034 -46.759 -59.966  0.00  0.00    +0.000 NA
ATOM      4  N   UNL     1     -63.356 -47.168 -60.521  0.00  0.00    +0.000 NA
ATOM      5  C   UNL     1     -62.852 -45.896 -58.597  0.00  0.00    +0.000 A 
ATOM      6  C   UNL     1     -61.524 -46.081 -58.919  0.00  0.00    +0.000 A 
ATOM      7  C   UNL     1     -62.830 -45.124 -57.422  0.00  0.00    +0.000 A 
ATOM      8  C   UNL     1     -63.791 -46.470 -59.443  0.00  0.00    +0.000 A 
ATOM      9  C   UNL     1     -62.026 -47.273 -60.720  0.00  0.00    +0.000 A 
ATOM     10  H   UNL     1     -59.803 -45.363 -57.877  0.00  0.00    +0.000 HD
ENDROOT
TORSDOF 0
ENDMDL
MODEL 2
REMARK VINA RESULT:      -3.7      1.458      3.488
REMARK  Name = 67499_Pyrazolo.pdbqt.pdb
REMARK  0 active torsions:
REMARK  status: ('A' for Active; 'I' for Inactive)
REMARK                            x       y       z     vdW  Elec       q    Type
REMARK                         _______ _______ _______ _____ _____    ______ ____
ROOT
ATOM      1  N   UNL     1     -63.277 -46.858 -61.111  0.00  0.00    +0.000 N 
ATOM      2  N   UNL     1     -62.053 -46.834 -61.682  0.00  0.00    +0.000 NA
ATOM      3  N   UNL     1     -64.305 -46.634 -58.930  0.00  0.00    +0.000 NA
ATOM      4  N   UNL     1     -62.660 -46.242 -57.196  0.00  0.00    +0.000 NA
ATOM      5  C   UNL     1     -61.926 -46.499 -59.425  0.00  0.00    +0.000 A 
ATOM      6  C   UNL     1     -63.253 -46.662 -59.761  0.00  0.00    +0.000 A 
ATOM      7  C   UNL     1     -61.234 -46.614 -60.644  0.00  0.00    +0.000 A 
ATOM      8  C   UNL     1     -61.637 -46.281 -58.086  0.00  0.00    +0.000 A 
ATOM      9  C   UNL     1     -63.915 -46.417 -57.658  0.00  0.00    +0.000 A 
ATOM     10  H   UNL     1     -64.091 -47.013 -61.694  0.00  0.00    +0.000 HD
ENDROOT
TORSDOF 0
ENDMDL
MODEL 3
REMARK VINA RESULT:      -3.5      1.361      2.293
REMARK  Name = 67499_Pyrazolo.pdbqt.pdb
REMARK  0 active torsions:
REMARK  status: ('A' for Active; 'I' for Inactive)
REMARK                            x       y       z     vdW  Elec       q    Type
REMARK                         _______ _______ _______ _____ _____    ______ ____
ROOT
ATOM      1  N   UNL     1     -62.253 -45.884 -57.439  0.00  0.00    +0.000 N 
ATOM      2  N   UNL     1     -61.010 -45.795 -57.960  0.00  0.00    +0.000 NA
ATOM      3  N   UNL     1     -64.486 -46.561 -58.088  0.00  0.00    +0.000 NA
ATOM      4  N   UNL     1     -64.562 -47.326 -60.385  0.00  0.00    +0.000 NA
ATOM      5  C   UNL     1     -62.498 -46.605 -59.492  0.00  0.00    +0.000 A 
ATOM      6  C   UNL     1     -63.180 -46.364 -58.318  0.00  0.00    +0.000 A 
ATOM      7  C   UNL     1     -61.170 -46.238 -59.214  0.00  0.00    +0.000 A 
ATOM      8  C   UNL     1     -63.235 -47.106 -60.556  0.00  0.00    +0.000 A 
ATOM      9  C   UNL     1     -65.105 -47.047 -59.182  0.00  0.00    +0.000 A 
ATOM     10  H   UNL     1     -62.408 -45.603 -56.478  0.00  0.00    +0.000 HD
ENDROOT
TORSDOF 0
ENDMDL
MODEL 4
REMARK VINA RESULT:      -3.5      1.474      3.210
REMARK  Name = 67499_Pyrazolo.pdbqt.pdb
REMARK  0 active torsions:
REMARK  status: ('A' for Active; 'I' for Inactive)
REMARK                            x       y       z     vdW  Elec       q    Type
REMARK                         _______ _______ _______ _____ _____    ______ ____
ROOT
ATOM      1  N   UNL     1     -64.761 -46.610 -58.481  0.00  0.00    +0.000 N 
ATOM      2  N   UNL     1     -65.509 -47.110 -59.488  0.00  0.00    +0.000 NA
ATOM      3  N   UNL     1     -62.449 -46.095 -57.975  0.00  0.00    +0.000 NA
ATOM      4  N   UNL     1     -60.982 -46.630 -59.827  0.00  0.00    +0.000 NA
ATOM      5  C   UNL     1     -63.297 -47.034 -60.054  0.00  0.00    +0.000 A 
ATOM      6  C   UNL     1     -63.429 -46.544 -58.772  0.00  0.00    +0.000 A 
ATOM      7  C   UNL     1     -64.607 -47.367 -60.444  0.00  0.00    +0.000 A 
ATOM      8  C   UNL     1     -62.016 -47.071 -60.586  0.00  0.00    +0.000 A 
ATOM      9  C   UNL     1     -61.250 -46.174 -58.585  0.00  0.00    +0.000 A 
ATOM     10  H   UNL     1     -65.214 -46.330 -57.619  0.00  0.00    +0.000 HD
ENDROOT
TORSDOF 0
ENDMDL
MODEL 5
REMARK VINA RESULT:      -3.4      1.239      3.099
REMARK  Name = 67499_Pyrazolo.pdbqt.pdb
REMARK  0 active torsions:
REMARK  status: ('A' for Active; 'I' for Inactive)
REMARK                            x       y       z     vdW  Elec       q    Type
REMARK                         _______ _______ _______ _____ _____    ______ ____
ROOT
ATOM      1  N   UNL     1     -64.422 -46.907 -60.669  0.00  0.00    +0.000 N 
ATOM      2  N   UNL     1     -65.576 -46.906 -59.966  0.00  0.00    +0.000 NA
ATOM      3  N   UNL     1     -62.043 -46.620 -60.317  0.00  0.00    +0.000 NA
ATOM      4  N   UNL     1     -61.523 -46.195 -57.990  0.00  0.00    +0.000 NA
ATOM      5  C   UNL     1     -63.778 -46.514 -58.613  0.00  0.00    +0.000 A 
ATOM      6  C   UNL     1     -63.317 -46.676 -59.902  0.00  0.00    +0.000 A 
ATOM      7  C   UNL     1     -65.172 -46.665 -58.712  0.00  0.00    +0.000 A 
ATOM      8  C   UNL     1     -62.829 -46.264 -57.631  0.00  0.00    +0.000 A 
ATOM      9  C   UNL     1     -61.207 -46.373 -59.290  0.00  0.00    +0.000 A 
ATOM     10  H   UNL     1     -64.451 -47.070 -61.668  0.00  0.00    +0.000 HD
ENDROOT
TORSDOF 0
ENDMDL
MODEL 6
REMARK VINA RESULT:      -3.4     19.100     20.059
REMARK  Name = 67499_Pyrazolo.pdbqt.pdb
REMARK  0 active torsions:
REMARK  status: ('A' for Active; 'I' for Inactive)
REMARK                            x       y       z     vdW  Elec       q    Type
REMARK                         _______ _______ _______ _____ _____    ______ ____
ROOT
ATOM      1  N   UNL     1     -66.572 -59.420 -71.247  0.00  0.00    +0.000 N 
ATOM      2  N   UNL     1     -67.145 -59.068 -72.418  0.00  0.00    +0.000 NA
ATOM      3  N   UNL     1     -65.004 -61.045 -70.371  0.00  0.00    +0.000 NA
ATOM      4  N   UNL     1     -64.178 -62.522 -72.103  0.00  0.00    +0.000 NA
ATOM      5  C   UNL     1     -65.726 -60.838 -72.686  0.00  0.00    +0.000 A 
ATOM      6  C   UNL     1     -65.714 -60.476 -71.355  0.00  0.00    +0.000 A 
ATOM      7  C   UNL     1     -66.622 -59.940 -73.291  0.00  0.00    +0.000 A 
ATOM      8  C   UNL     1     -64.920 -61.906 -73.055  0.00  0.00    +0.000 A 
ATOM      9  C   UNL     1     -64.259 -62.067 -70.835  0.00  0.00    +0.000 A 
ATOM     10  H   UNL     1     -66.805 -58.904 -70.407  0.00  0.00    +0.000 HD
ENDROOT
TORSDOF 0
ENDMDL
MODEL 7
REMARK VINA RESULT:      -3.3     34.163     35.451
REMARK  Name = 67499_Pyrazolo.pdbqt.pdb
REMARK  0 active torsions:
REMARK  status: ('A' for Active; 'I' for Inactive)
REMARK                            x       y       z     vdW  Elec       q    Type
REMARK                         _______ _______ _______ _____ _____    ______ ____
ROOT
ATOM      1  N   UNL     1     -53.745 -60.885 -88.546  0.00  0.00    +0.000 N 
ATOM      2  N   UNL     1     -52.765 -60.052 -88.133  0.00  0.00    +0.000 NA
ATOM      3  N   UNL     1     -55.005 -61.409 -90.548  0.00  0.00    +0.000 NA
ATOM      4  N   UNL     1     -54.330 -60.032 -92.422  0.00  0.00    +0.000 NA
ATOM      5  C   UNL     1     -53.258 -59.727 -90.340  0.00  0.00    +0.000 A 
ATOM      6  C   UNL     1     -54.076 -60.729 -89.861  0.00  0.00    +0.000 A 
ATOM      7  C   UNL     1     -52.474 -59.349 -89.236  0.00  0.00    +0.000 A 
ATOM      8  C   UNL     1     -53.405 -59.378 -91.676  0.00  0.00    +0.000 A 
ATOM      9  C   UNL     1     -55.066 -60.994 -91.828  0.00  0.00    +0.000 A 
ATOM     10  H   UNL     1     -54.150 -61.538 -87.887  0.00  0.00    +0.000 HD
ENDROOT
TORSDOF 0
ENDMDL
MODEL 8
REMARK VINA RESULT:      -3.3      2.183      3.593
REMARK  Name = 67499_Pyrazolo.pdbqt.pdb
REMARK  0 active torsions:
REMARK  status: ('A' for Active; 'I' for Inactive)
REMARK                            x       y       z     vdW  Elec       q    Type
REMARK                         _______ _______ _______ _____ _____    ______ ____
ROOT
ATOM      1  N   UNL     1     -61.416 -46.576 -61.413  0.00  0.00    +0.000 N 
ATOM      2  N   UNL     1     -61.954 -47.376 -60.468  0.00  0.00    +0.000 NA
ATOM      3  N   UNL     1     -60.354 -44.408 -61.616  0.00  0.00    +0.000 NA
ATOM      4  N   UNL     1     -60.183 -43.287 -59.476  0.00  0.00    +0.000 NA
ATOM      5  C   UNL     1     -61.182 -45.425 -59.565  0.00  0.00    +0.000 A 
ATOM      6  C   UNL     1     -60.939 -45.395 -60.922  0.00  0.00    +0.000 A 
ATOM      7  C   UNL     1     -61.807 -46.664 -59.342  0.00  0.00    +0.000 A 
ATOM      8  C   UNL     1     -60.781 -44.318 -58.829  0.00  0.00    +0.000 A 
ATOM      9  C   UNL     1     -60.006 -43.387 -60.810  0.00  0.00    +0.000 A 
ATOM     10  H   UNL     1     -61.402 -46.889 -62.377  0.00  0.00    +0.000 HD
ENDROOT
TORSDOF 0
ENDMDL
MODEL 9
REMARK VINA RESULT:      -3.2     30.564     31.565
REMARK  Name = 67499_Pyrazolo.pdbqt.pdb
REMARK  0 active torsions:
REMARK  status: ('A' for Active; 'I' for Inactive)
REMARK                            x       y       z     vdW  Elec       q    Type
REMARK                         _______ _______ _______ _____ _____    ______ ____
ROOT
ATOM      1  N   UNL     1     -58.483 -66.560 -80.515  0.00  0.00    +0.000 N 
ATOM      2  N   UNL     1     -58.020 -67.568 -79.744  0.00  0.00    +0.000 NA
ATOM      3  N   UNL     1     -59.724 -66.223 -82.567  0.00  0.00    +0.000 NA
ATOM      4  N   UNL     1     -60.351 -68.325 -83.595  0.00  0.00    +0.000 NA
ATOM      5  C   UNL     1     -59.129 -68.365 -81.575  0.00  0.00    +0.000 A 
ATOM      6  C   UNL     1     -59.155 -66.987 -81.624  0.00  0.00    +0.000 A 
ATOM      7  C   UNL     1     -58.419 -68.666 -80.399  0.00  0.00    +0.000 A 
ATOM      8  C   UNL     1     -59.757 -69.043 -82.610  0.00  0.00    +0.000 A 
ATOM      9  C   UNL     1     -60.303 -66.978 -83.521  0.00  0.00    +0.000 A 
ATOM     10  H   UNL     1     -58.311 -65.603 -80.234  0.00  0.00    +0.000 HD
ENDROOT
TORSDOF 0
ENDMDL
