MODEL 1
REMARK VINA RESULT:      -4.3      0.000      0.000
REMARK  Name = 71369791_5FluoroDione.pdbqt.pdb
REMARK  1 active torsions:
REMARK  status: ('A' for Active; 'I' for Inactive)
REMARK    1  A    between atoms: N_4  and  C_12
REMARK                            x       y       z     vdW  Elec       q    Type
REMARK                         _______ _______ _______ _____ _____    ______ ____
ROOT
ATOM      1  F   UNL     1     -70.323 -56.631 -36.153  0.00  0.00    +0.000 F 
ATOM      2  O   UNL     1     -67.368 -58.284 -31.887  0.00  0.00    +0.000 OA
ATOM      3  O   UNL     1     -67.737 -57.757 -36.428  0.00  0.00    +0.000 OA
ATOM      4  N   UNL     1     -69.249 -57.082 -32.665  0.00  0.00    +0.000 N 
ATOM      5  N   UNL     1     -67.588 -57.897 -34.133  0.00  0.00    +0.000 N 
ATOM      6  C   UNL     1     -69.828 -56.620 -33.790  0.00  0.00    +0.000 C 
ATOM      7  C   UNL     1     -69.447 -56.689 -35.136  0.00  0.00    +0.000 C 
ATOM      8  C   UNL     1     -68.029 -57.785 -32.792  0.00  0.00    +0.000 C 
ATOM      9  C   UNL     1     -68.194 -57.478 -35.326  0.00  0.00    +0.000 C 
ATOM     10  H   UNL     1     -66.739 -58.433 -34.249  0.00  0.00    +0.000 HD
ENDROOT
BRANCH   4  12
ATOM     11  O   UNL     1     -70.666 -57.814 -30.833  0.00  0.00    +0.000 OA
ATOM     12  C   UNL     1     -69.868 -56.854 -31.468  0.00  0.00    +0.000 C 
ATOM     13  C   UNL     1     -69.849 -55.687 -30.659  0.00  0.00    +0.000 C 
ATOM     14  C   UNL     1     -70.608 -55.600 -29.334  0.00  0.00    +0.000 C 
ATOM     15  C   UNL     1     -70.945 -57.017 -29.794  0.00  0.00    +0.000 C 
ENDBRANCH   4  12
TORSDOF 1
ENDMDL
MODEL 2
REMARK VINA RESULT:      -4.2      2.907      4.114
REMARK  Name = 71369791_5FluoroDione.pdbqt.pdb
REMARK  1 active torsions:
REMARK  status: ('A' for Active; 'I' for Inactive)
REMARK    1  A    between atoms: N_4  and  C_12
REMARK                            x       y       z     vdW  Elec       q    Type
REMARK                         _______ _______ _______ _____ _____    ______ ____
ROOT
ATOM      1  F   UNL     1     -70.315 -59.278 -32.132  0.00  0.00    +0.000 F 
ATOM      2  O   UNL     1     -69.941 -54.821 -29.025  0.00  0.00    +0.000 OA
ATOM      3  O   UNL     1     -68.726 -57.044 -32.848  0.00  0.00    +0.000 OA
ATOM      4  N   UNL     1     -71.064 -56.852 -29.472  0.00  0.00    +0.000 N 
ATOM      5  N   UNL     1     -69.461 -55.954 -30.956  0.00  0.00    +0.000 N 
ATOM      6  C   UNL     1     -71.151 -57.845 -30.379  0.00  0.00    +0.000 C 
ATOM      7  C   UNL     1     -70.499 -58.059 -31.599  0.00  0.00    +0.000 C 
ATOM      8  C   UNL     1     -70.160 -55.797 -29.735  0.00  0.00    +0.000 C 
ATOM      9  C   UNL     1     -69.487 -57.001 -31.889  0.00  0.00    +0.000 C 
ATOM     10  H   UNL     1     -68.779 -55.231 -31.142  0.00  0.00    +0.000 HD
ENDROOT
BRANCH   4  12
ATOM     11  O   UNL     1     -73.113 -56.325 -28.279  0.00  0.00    +0.000 OA
ATOM     12  C   UNL     1     -71.845 -56.916 -28.353  0.00  0.00    +0.000 C 
ATOM     13  C   UNL     1     -71.575 -57.542 -27.107  0.00  0.00    +0.000 C 
ATOM     14  C   UNL     1     -72.570 -57.515 -25.946  0.00  0.00    +0.000 C 
ATOM     15  C   UNL     1     -73.319 -56.724 -27.018  0.00  0.00    +0.000 C 
ENDBRANCH   4  12
TORSDOF 1
ENDMDL
MODEL 3
REMARK VINA RESULT:      -4.1      9.225     11.468
REMARK  Name = 71369791_5FluoroDione.pdbqt.pdb
REMARK  1 active torsions:
REMARK  status: ('A' for Active; 'I' for Inactive)
REMARK    1  A    between atoms: N_4  and  C_12
REMARK                            x       y       z     vdW  Elec       q    Type
REMARK                         _______ _______ _______ _____ _____    ______ ____
ROOT
ATOM      1  F   UNL     1     -71.582 -59.304 -23.497  0.00  0.00    +0.000 F 
ATOM      2  O   UNL     1     -74.564 -54.753 -23.732  0.00  0.00    +0.000 OA
ATOM      3  O   UNL     1     -72.579 -58.254 -25.932  0.00  0.00    +0.000 OA
ATOM      4  N   UNL     1     -73.621 -56.452 -22.386  0.00  0.00    +0.000 N 
ATOM      5  N   UNL     1     -73.630 -56.581 -24.745  0.00  0.00    +0.000 N 
ATOM      6  C   UNL     1     -72.987 -57.639 -22.457  0.00  0.00    +0.000 C 
ATOM      7  C   UNL     1     -72.603 -58.433 -23.544  0.00  0.00    +0.000 C 
ATOM      8  C   UNL     1     -73.993 -55.831 -23.601  0.00  0.00    +0.000 C 
ATOM      9  C   UNL     1     -72.921 -57.787 -24.852  0.00  0.00    +0.000 C 
ATOM     10  H   UNL     1     -73.850 -56.135 -25.624  0.00  0.00    +0.000 HD
ENDROOT
BRANCH   4  12
ATOM     11  O   UNL     1     -75.158 -55.628 -20.697  0.00  0.00    +0.000 OA
ATOM     12  C   UNL     1     -73.866 -55.912 -21.156  0.00  0.00    +0.000 C 
ATOM     13  C   UNL     1     -72.944 -55.541 -20.141  0.00  0.00    +0.000 C 
ATOM     14  C   UNL     1     -73.394 -54.941 -18.808  0.00  0.00    +0.000 C 
ATOM     15  C   UNL     1     -74.729 -55.155 -19.521  0.00  0.00    +0.000 C 
ENDBRANCH   4  12
TORSDOF 1
ENDMDL
MODEL 4
REMARK VINA RESULT:      -4.1     27.907     29.001
REMARK  Name = 71369791_5FluoroDione.pdbqt.pdb
REMARK  1 active torsions:
REMARK  status: ('A' for Active; 'I' for Inactive)
REMARK    1  A    between atoms: N_4  and  C_12
REMARK                            x       y       z     vdW  Elec       q    Type
REMARK                         _______ _______ _______ _____ _____    ______ ____
ROOT
ATOM      1  F   UNL     1     -61.678 -47.491 -60.564  0.00  0.00    +0.000 F 
ATOM      2  O   UNL     1     -65.262 -45.562 -56.945  0.00  0.00    +0.000 OA
ATOM      3  O   UNL     1     -60.899 -46.446 -58.048  0.00  0.00    +0.000 OA
ATOM      4  N   UNL     1     -64.853 -46.277 -59.161  0.00  0.00    +0.000 N 
ATOM      5  N   UNL     1     -63.104 -45.942 -57.609  0.00  0.00    +0.000 N 
ATOM      6  C   UNL     1     -63.860 -46.624 -60.002  0.00  0.00    +0.000 C 
ATOM      7  C   UNL     1     -62.471 -46.685 -59.838  0.00  0.00    +0.000 C 
ATOM      8  C   UNL     1     -64.499 -45.897 -57.845  0.00  0.00    +0.000 C 
ATOM      9  C   UNL     1     -62.055 -46.353 -58.444  0.00  0.00    +0.000 C 
ATOM     10  H   UNL     1     -62.834 -45.714 -56.662  0.00  0.00    +0.000 HD
ENDROOT
BRANCH   4  12
ATOM     11  O   UNL     1     -66.915 -47.479 -59.607  0.00  0.00    +0.000 OA
ATOM     12  C   UNL     1     -66.141 -46.312 -59.616  0.00  0.00    +0.000 C 
ATOM     13  C   UNL     1     -66.927 -45.262 -60.159  0.00  0.00    +0.000 C 
ATOM     14  C   UNL     1     -68.368 -45.479 -60.627  0.00  0.00    +0.000 C 
ATOM     15  C   UNL     1     -67.983 -46.876 -60.142  0.00  0.00    +0.000 C 
ENDBRANCH   4  12
TORSDOF 1
ENDMDL
MODEL 5
REMARK VINA RESULT:      -4.1     28.696     29.766
REMARK  Name = 71369791_5FluoroDione.pdbqt.pdb
REMARK  1 active torsions:
REMARK  status: ('A' for Active; 'I' for Inactive)
REMARK    1  A    between atoms: N_4  and  C_12
REMARK                            x       y       z     vdW  Elec       q    Type
REMARK                         _______ _______ _______ _____ _____    ______ ____
ROOT
ATOM      1  F   UNL     1     -61.965 -46.975 -61.940  0.00  0.00    +0.000 F 
ATOM      2  O   UNL     1     -63.073 -44.915 -57.021  0.00  0.00    +0.000 OA
ATOM      3  O   UNL     1     -64.341 -47.591 -60.524  0.00  0.00    +0.000 OA
ATOM      4  N   UNL     1     -61.469 -45.266 -58.721  0.00  0.00    +0.000 N 
ATOM      5  N   UNL     1     -63.589 -46.307 -58.764  0.00  0.00    +0.000 N 
ATOM      6  C   UNL     1     -61.270 -45.924 -59.880  0.00  0.00    +0.000 C 
ATOM      7  C   UNL     1     -62.084 -46.796 -60.613  0.00  0.00    +0.000 C 
ATOM      8  C   UNL     1     -62.712 -45.437 -58.071  0.00  0.00    +0.000 C 
ATOM      9  C   UNL     1     -63.433 -46.959 -59.997  0.00  0.00    +0.000 C 
ATOM     10  H   UNL     1     -64.499 -46.410 -58.337  0.00  0.00    +0.000 HD
ENDROOT
BRANCH   4  12
ATOM     11  O   UNL     1     -59.699 -44.815 -57.120  0.00  0.00    +0.000 OA
ATOM     12  C   UNL     1     -60.468 -44.471 -58.239  0.00  0.00    +0.000 C 
ATOM     13  C   UNL     1     -60.014 -43.214 -58.719  0.00  0.00    +0.000 C 
ATOM     14  C   UNL     1     -58.870 -42.449 -58.051  0.00  0.00    +0.000 C 
ATOM     15  C   UNL     1     -58.962 -43.699 -57.177  0.00  0.00    +0.000 C 
ENDBRANCH   4  12
TORSDOF 1
ENDMDL
MODEL 6
REMARK VINA RESULT:      -4.1     28.385     30.329
REMARK  Name = 71369791_5FluoroDione.pdbqt.pdb
REMARK  1 active torsions:
REMARK  status: ('A' for Active; 'I' for Inactive)
REMARK    1  A    between atoms: N_4  and  C_12
REMARK                            x       y       z     vdW  Elec       q    Type
REMARK                         _______ _______ _______ _____ _____    ______ ____
ROOT
ATOM      1  F   UNL     1     -61.850 -42.387 -60.531  0.00  0.00    +0.000 F 
ATOM      2  O   UNL     1     -61.945 -47.816 -60.950  0.00  0.00    +0.000 OA
ATOM      3  O   UNL     1     -59.734 -43.868 -61.697  0.00  0.00    +0.000 OA
ATOM      4  N   UNL     1     -62.900 -45.872 -60.005  0.00  0.00    +0.000 N 
ATOM      5  N   UNL     1     -60.862 -45.814 -61.198  0.00  0.00    +0.000 N 
ATOM      6  C   UNL     1     -62.704 -44.546 -59.869  0.00  0.00    +0.000 C 
ATOM      7  C   UNL     1     -61.678 -43.701 -60.309  0.00  0.00    +0.000 C 
ATOM      8  C   UNL     1     -61.930 -46.611 -60.719  0.00  0.00    +0.000 C 
ATOM      9  C   UNL     1     -60.660 -44.428 -61.123  0.00  0.00    +0.000 C 
ATOM     10  H   UNL     1     -60.180 -46.317 -61.747  0.00  0.00    +0.000 HD
ENDROOT
BRANCH   4  12
ATOM     11  O   UNL     1     -64.273 -46.412 -58.076  0.00  0.00    +0.000 OA
ATOM     12  C   UNL     1     -64.019 -46.429 -59.453  0.00  0.00    +0.000 C 
ATOM     13  C   UNL     1     -65.094 -47.100 -60.094  0.00  0.00    +0.000 C 
ATOM     14  C   UNL     1     -66.280 -47.671 -59.315  0.00  0.00    +0.000 C 
ATOM     15  C   UNL     1     -65.432 -47.071 -58.196  0.00  0.00    +0.000 C 
ENDBRANCH   4  12
TORSDOF 1
ENDMDL
MODEL 7
REMARK VINA RESULT:      -4.0      2.283      5.546
REMARK  Name = 71369791_5FluoroDione.pdbqt.pdb
REMARK  1 active torsions:
REMARK  status: ('A' for Active; 'I' for Inactive)
REMARK    1  A    between atoms: N_4  and  C_12
REMARK                            x       y       z     vdW  Elec       q    Type
REMARK                         _______ _______ _______ _____ _____    ______ ____
ROOT
ATOM      1  F   UNL     1     -70.410 -55.686 -33.463  0.00  0.00    +0.000 F 
ATOM      2  O   UNL     1     -66.436 -58.971 -35.218  0.00  0.00    +0.000 OA
ATOM      3  O   UNL     1     -68.960 -57.395 -31.729  0.00  0.00    +0.000 OA
ATOM      4  N   UNL     1     -68.250 -57.562 -35.775  0.00  0.00    +0.000 N 
ATOM      5  N   UNL     1     -67.803 -58.209 -33.547  0.00  0.00    +0.000 N 
ATOM      6  C   UNL     1     -69.276 -56.879 -35.230  0.00  0.00    +0.000 C 
ATOM      7  C   UNL     1     -69.716 -56.748 -33.907  0.00  0.00    +0.000 C 
ATOM      8  C   UNL     1     -67.416 -58.302 -34.906  0.00  0.00    +0.000 C 
ATOM      9  C   UNL     1     -68.826 -57.463 -32.945  0.00  0.00    +0.000 C 
ATOM     10  H   UNL     1     -67.194 -58.697 -32.906  0.00  0.00    +0.000 HD
ENDROOT
BRANCH   4  12
ATOM     11  O   UNL     1     -68.165 -58.627 -37.956  0.00  0.00    +0.000 OA
ATOM     12  C   UNL     1     -68.068 -57.502 -37.128  0.00  0.00    +0.000 C 
ATOM     13  C   UNL     1     -67.761 -56.378 -37.940  0.00  0.00    +0.000 C 
ATOM     14  C   UNL     1     -67.587 -56.490 -39.456  0.00  0.00    +0.000 C 
ATOM     15  C   UNL     1     -67.897 -57.935 -39.070  0.00  0.00    +0.000 C 
ENDBRANCH   4  12
TORSDOF 1
ENDMDL
MODEL 8
REMARK VINA RESULT:      -3.9     28.397     29.609
REMARK  Name = 71369791_5FluoroDione.pdbqt.pdb
REMARK  1 active torsions:
REMARK  status: ('A' for Active; 'I' for Inactive)
REMARK    1  A    between atoms: N_4  and  C_12
REMARK                            x       y       z     vdW  Elec       q    Type
REMARK                         _______ _______ _______ _____ _____    ______ ____
ROOT
ATOM      1  F   UNL     1     -60.137 -43.908 -60.803  0.00  0.00    +0.000 F 
ATOM      2  O   UNL     1     -62.939 -46.328 -56.808  0.00  0.00    +0.000 OA
ATOM      3  O   UNL     1     -59.542 -43.513 -58.061  0.00  0.00    +0.000 OA
ATOM      4  N   UNL     1     -62.806 -45.785 -59.105  0.00  0.00    +0.000 N 
ATOM      5  N   UNL     1     -61.328 -44.860 -57.510  0.00  0.00    +0.000 N 
ATOM      6  C   UNL     1     -62.104 -45.046 -59.986  0.00  0.00    +0.000 C 
ATOM      7  C   UNL     1     -61.020 -44.176 -59.826  0.00  0.00    +0.000 C 
ATOM      8  C   UNL     1     -62.427 -45.722 -57.744  0.00  0.00    +0.000 C 
ATOM      9  C   UNL     1     -60.544 -44.126 -58.412  0.00  0.00    +0.000 C 
ATOM     10  H   UNL     1     -61.016 -44.834 -56.550  0.00  0.00    +0.000 HD
ENDROOT
BRANCH   4  12
ATOM     11  O   UNL     1     -63.664 -47.549 -60.536  0.00  0.00    +0.000 OA
ATOM     12  C   UNL     1     -63.837 -46.553 -59.567  0.00  0.00    +0.000 C 
ATOM     13  C   UNL     1     -65.209 -46.521 -59.204  0.00  0.00    +0.000 C 
ATOM     14  C   UNL     1     -66.241 -47.462 -59.829  0.00  0.00    +0.000 C 
ATOM     15  C   UNL     1     -64.958 -47.890 -60.539  0.00  0.00    +0.000 C 
ENDBRANCH   4  12
TORSDOF 1
ENDMDL
MODEL 9
REMARK VINA RESULT:      -3.9      1.844      2.337
REMARK  Name = 71369791_5FluoroDione.pdbqt.pdb
REMARK  1 active torsions:
REMARK  status: ('A' for Active; 'I' for Inactive)
REMARK    1  A    between atoms: N_4  and  C_12
REMARK                            x       y       z     vdW  Elec       q    Type
REMARK                         _______ _______ _______ _____ _____    ______ ____
ROOT
ATOM      1  F   UNL     1     -66.752 -58.093 -33.999  0.00  0.00    +0.000 F 
ATOM      2  O   UNL     1     -71.434 -55.335 -33.629  0.00  0.00    +0.000 OA
ATOM      3  O   UNL     1     -68.283 -57.367 -36.270  0.00  0.00    +0.000 OA
ATOM      4  N   UNL     1     -69.746 -56.559 -32.514  0.00  0.00    +0.000 N 
ATOM      5  N   UNL     1     -69.870 -56.455 -34.871  0.00  0.00    +0.000 N 
ATOM      6  C   UNL     1     -68.664 -57.329 -32.739  0.00  0.00    +0.000 C 
ATOM      7  C   UNL     1     -68.052 -57.764 -33.920  0.00  0.00    +0.000 C 
ATOM      8  C   UNL     1     -70.440 -56.055 -33.638  0.00  0.00    +0.000 C 
ATOM      9  C   UNL     1     -68.715 -57.205 -35.135  0.00  0.00    +0.000 C 
ATOM     10  H   UNL     1     -70.327 -56.071 -35.686  0.00  0.00    +0.000 HD
ENDROOT
BRANCH   4  12
ATOM     11  O   UNL     1     -70.697 -57.269 -30.396  0.00  0.00    +0.000 OA
ATOM     12  C   UNL     1     -70.112 -56.302 -31.223  0.00  0.00    +0.000 C 
ATOM     13  C   UNL     1     -69.997 -55.096 -30.483  0.00  0.00    +0.000 C 
ATOM     14  C   UNL     1     -70.465 -54.981 -29.031  0.00  0.00    +0.000 C 
ATOM     15  C   UNL     1     -70.801 -56.436 -29.353  0.00  0.00    +0.000 C 
ENDBRANCH   4  12
TORSDOF 1
ENDMDL
