MODEL 1
REMARK VINA RESULT:      -2.8      0.000      0.000
REMARK  Name = 7288_3Pentanone.pdbqt.pdb
REMARK  2 active torsions:
REMARK  status: ('A' for Active; 'I' for Inactive)
REMARK    1  A    between atoms: C_2  and  C_3
REMARK    2  A    between atoms: C_2  and  C_5
REMARK                            x       y       z     vdW  Elec       q    Type
REMARK                         _______ _______ _______ _____ _____    ______ ____
ROOT
ATOM      1  O   UNL     1     -62.067 -46.998 -61.774  0.00  0.00    +0.000 OA
ATOM      2  C   UNL     1     -62.574 -46.944 -60.661  0.00  0.00    +0.000 C 
ENDROOT
BRANCH   2   3
ATOM      3  C   UNL     1     -63.925 -47.401 -60.439  0.00  0.00    +0.000 C 
ATOM      4  C   UNL     1     -65.362 -47.911 -60.214  0.00  0.00    +0.000 C 
ENDBRANCH   2   3
BRANCH   2   5
ATOM      5  C   UNL     1     -61.837 -46.420 -59.535  0.00  0.00    +0.000 C 
ATOM      6  C   UNL     1     -61.062 -45.841 -58.334  0.00  0.00    +0.000 C 
ENDBRANCH   2   5
TORSDOF 2
ENDMDL
MODEL 2
REMARK VINA RESULT:      -2.8      2.512      3.209
REMARK  Name = 7288_3Pentanone.pdbqt.pdb
REMARK  2 active torsions:
REMARK  status: ('A' for Active; 'I' for Inactive)
REMARK    1  A    between atoms: C_2  and  C_3
REMARK    2  A    between atoms: C_2  and  C_5
REMARK                            x       y       z     vdW  Elec       q    Type
REMARK                         _______ _______ _______ _____ _____    ______ ____
ROOT
ATOM      1  O   UNL     1     -60.699 -45.822 -57.899  0.00  0.00    +0.000 OA
ATOM      2  C   UNL     1     -61.736 -46.291 -58.354  0.00  0.00    +0.000 C 
ENDROOT
BRANCH   2   3
ATOM      3  C   UNL     1     -62.893 -46.485 -57.513  0.00  0.00    +0.000 C 
ATOM      4  C   UNL     1     -64.142 -46.682 -56.632  0.00  0.00    +0.000 C 
ENDBRANCH   2   3
BRANCH   2   5
ATOM      5  C   UNL     1     -61.832 -46.663 -59.746  0.00  0.00    +0.000 C 
ATOM      6  C   UNL     1     -61.949 -47.042 -61.236  0.00  0.00    +0.000 C 
ENDBRANCH   2   5
TORSDOF 2
ENDMDL
MODEL 3
REMARK VINA RESULT:      -2.6      9.279      9.460
REMARK  Name = 7288_3Pentanone.pdbqt.pdb
REMARK  2 active torsions:
REMARK  status: ('A' for Active; 'I' for Inactive)
REMARK    1  A    between atoms: C_2  and  C_3
REMARK    2  A    between atoms: C_2  and  C_5
REMARK                            x       y       z     vdW  Elec       q    Type
REMARK                         _______ _______ _______ _____ _____    ______ ____
ROOT
ATOM      1  O   UNL     1     -58.664 -56.645 -58.511  0.00  0.00    +0.000 OA
ATOM      2  C   UNL     1     -59.580 -55.833 -58.538  0.00  0.00    +0.000 C 
ENDROOT
BRANCH   2   3
ATOM      3  C   UNL     1     -60.567 -55.794 -57.484  0.00  0.00    +0.000 C 
ATOM      4  C   UNL     1     -61.617 -55.729 -56.358  0.00  0.00    +0.000 C 
ENDBRANCH   2   3
BRANCH   2   5
ATOM      5  C   UNL     1     -59.703 -54.889 -59.623  0.00  0.00    +0.000 C 
ATOM      6  C   UNL     1     -59.818 -53.894 -60.795  0.00  0.00    +0.000 C 
ENDBRANCH   2   5
TORSDOF 2
ENDMDL
MODEL 4
REMARK VINA RESULT:      -2.6      9.224      9.516
REMARK  Name = 7288_3Pentanone.pdbqt.pdb
REMARK  2 active torsions:
REMARK  status: ('A' for Active; 'I' for Inactive)
REMARK    1  A    between atoms: C_2  and  C_3
REMARK    2  A    between atoms: C_2  and  C_5
REMARK                            x       y       z     vdW  Elec       q    Type
REMARK                         _______ _______ _______ _____ _____    ______ ____
ROOT
ATOM      1  O   UNL     1     -60.786 -57.346 -59.749  0.00  0.00    +0.000 OA
ATOM      2  C   UNL     1     -60.728 -56.233 -59.240  0.00  0.00    +0.000 C 
ENDROOT
BRANCH   2   3
ATOM      3  C   UNL     1     -60.253 -55.097 -59.994  0.00  0.00    +0.000 C 
ATOM      4  C   UNL     1     -59.770 -53.878 -60.805  0.00  0.00    +0.000 C 
ENDBRANCH   2   3
BRANCH   2   5
ATOM      5  C   UNL     1     -61.132 -56.023 -57.870  0.00  0.00    +0.000 C 
ATOM      6  C   UNL     1     -61.587 -55.802 -56.414  0.00  0.00    +0.000 C 
ENDBRANCH   2   5
TORSDOF 2
ENDMDL
MODEL 5
REMARK VINA RESULT:      -2.5     41.799     42.738
REMARK  Name = 7288_3Pentanone.pdbqt.pdb
REMARK  2 active torsions:
REMARK  status: ('A' for Active; 'I' for Inactive)
REMARK    1  A    between atoms: C_2  and  C_3
REMARK    2  A    between atoms: C_2  and  C_5
REMARK                            x       y       z     vdW  Elec       q    Type
REMARK                         _______ _______ _______ _____ _____    ______ ____
ROOT
ATOM      1  O   UNL     1     -64.469 -53.832 -19.155  0.00  0.00    +0.000 OA
ATOM      2  C   UNL     1     -65.384 -53.510 -18.407  0.00  0.00    +0.000 C 
ENDROOT
BRANCH   2   3
ATOM      3  C   UNL     1     -66.332 -52.492 -18.792  0.00  0.00    +0.000 C 
ATOM      4  C   UNL     1     -67.362 -51.418 -19.194  0.00  0.00    +0.000 C 
ENDBRANCH   2   3
BRANCH   2   5
ATOM      5  C   UNL     1     -65.543 -54.139 -17.117  0.00  0.00    +0.000 C 
ATOM      6  C   UNL     1     -65.735 -54.817 -15.746  0.00  0.00    +0.000 C 
ENDBRANCH   2   5
TORSDOF 2
ENDMDL
MODEL 6
REMARK VINA RESULT:      -2.5     29.374     29.851
REMARK  Name = 7288_3Pentanone.pdbqt.pdb
REMARK  2 active torsions:
REMARK  status: ('A' for Active; 'I' for Inactive)
REMARK    1  A    between atoms: C_2  and  C_3
REMARK    2  A    between atoms: C_2  and  C_5
REMARK                            x       y       z     vdW  Elec       q    Type
REMARK                         _______ _______ _______ _____ _____    ______ ____
ROOT
ATOM      1  O   UNL     1     -67.134 -58.704 -32.148  0.00  0.00    +0.000 OA
ATOM      2  C   UNL     1     -67.899 -57.916 -32.690  0.00  0.00    +0.000 C 
ENDROOT
BRANCH   2   3
ATOM      3  C   UNL     1     -68.952 -57.272 -31.943  0.00  0.00    +0.000 C 
ATOM      4  C   UNL     1     -70.083 -56.570 -31.164  0.00  0.00    +0.000 C 
ENDBRANCH   2   3
BRANCH   2   5
ATOM      5  C   UNL     1     -67.770 -57.606 -34.094  0.00  0.00    +0.000 C 
ATOM      6  C   UNL     1     -67.643 -57.296 -35.600  0.00  0.00    +0.000 C 
ENDBRANCH   2   5
TORSDOF 2
ENDMDL
MODEL 7
REMARK VINA RESULT:      -2.5     30.341     30.846
REMARK  Name = 7288_3Pentanone.pdbqt.pdb
REMARK  2 active torsions:
REMARK  status: ('A' for Active; 'I' for Inactive)
REMARK    1  A    between atoms: C_2  and  C_3
REMARK    2  A    between atoms: C_2  and  C_5
REMARK                            x       y       z     vdW  Elec       q    Type
REMARK                         _______ _______ _______ _____ _____    ______ ____
ROOT
ATOM      1  O   UNL     1     -70.497 -55.947 -33.068  0.00  0.00    +0.000 OA
ATOM      2  C   UNL     1     -69.797 -56.273 -32.117  0.00  0.00    +0.000 C 
ENDROOT
BRANCH   2   3
ATOM      3  C   UNL     1     -68.745 -57.250 -32.273  0.00  0.00    +0.000 C 
ATOM      4  C   UNL     1     -67.636 -58.305 -32.454  0.00  0.00    +0.000 C 
ENDBRANCH   2   3
BRANCH   2   5
ATOM      5  C   UNL     1     -70.001 -55.691 -30.812  0.00  0.00    +0.000 C 
ATOM      6  C   UNL     1     -70.196 -55.064 -29.417  0.00  0.00    +0.000 C 
ENDBRANCH   2   5
TORSDOF 2
ENDMDL
MODEL 8
REMARK VINA RESULT:      -2.5      9.329      9.526
REMARK  Name = 7288_3Pentanone.pdbqt.pdb
REMARK  2 active torsions:
REMARK  status: ('A' for Active; 'I' for Inactive)
REMARK    1  A    between atoms: C_2  and  C_3
REMARK    2  A    between atoms: C_2  and  C_5
REMARK                            x       y       z     vdW  Elec       q    Type
REMARK                         _______ _______ _______ _____ _____    ______ ____
ROOT
ATOM      1  O   UNL     1     -62.814 -56.442 -58.889  0.00  0.00    +0.000 OA
ATOM      2  C   UNL     1     -61.675 -56.013 -58.746  0.00  0.00    +0.000 C 
ENDROOT
BRANCH   2   3
ATOM      3  C   UNL     1     -61.024 -55.273 -59.800  0.00  0.00    +0.000 C 
ATOM      4  C   UNL     1     -60.308 -54.483 -60.913  0.00  0.00    +0.000 C 
ENDBRANCH   2   3
BRANCH   2   5
ATOM      5  C   UNL     1     -60.949 -56.235 -57.518  0.00  0.00    +0.000 C 
ATOM      6  C   UNL     1     -60.155 -56.481 -56.219  0.00  0.00    +0.000 C 
ENDBRANCH   2   5
TORSDOF 2
ENDMDL
MODEL 9
REMARK VINA RESULT:      -2.5     31.068     32.252
REMARK  Name = 7288_3Pentanone.pdbqt.pdb
REMARK  2 active torsions:
REMARK  status: ('A' for Active; 'I' for Inactive)
REMARK    1  A    between atoms: C_2  and  C_3
REMARK    2  A    between atoms: C_2  and  C_5
REMARK                            x       y       z     vdW  Elec       q    Type
REMARK                         _______ _______ _______ _____ _____    ______ ____
ROOT
ATOM      1  O   UNL     1     -64.082 -50.740 -26.910  0.00  0.00    +0.000 OA
ATOM      2  C   UNL     1     -63.626 -50.069 -27.828  0.00  0.00    +0.000 C 
ENDROOT
BRANCH   2   3
ATOM      3  C   UNL     1     -62.208 -49.823 -27.933  0.00  0.00    +0.000 C 
ATOM      4  C   UNL     1     -60.697 -49.548 -28.065  0.00  0.00    +0.000 C 
ENDBRANCH   2   3
BRANCH   2   5
ATOM      5  C   UNL     1     -64.494 -49.503 -28.833  0.00  0.00    +0.000 C 
ATOM      6  C   UNL     1     -65.420 -48.919 -29.920  0.00  0.00    +0.000 C 
ENDBRANCH   2   5
TORSDOF 2
ENDMDL
