MODEL 1
REMARK VINA RESULT:      -6.1      0.000      0.000
REMARK  Name = 73299_Hederagenin.pdbqt.pdb
REMARK  5 active torsions:
REMARK  status: ('A' for Active; 'I' for Inactive)
REMARK    1  A    between atoms: C_9  and  C_35
REMARK    2  A    between atoms: C_14  and  C_32
REMARK    3  A    between atoms: C_17  and  O_29
REMARK    4  A    between atoms: C_32  and  O_33
REMARK    5  A    between atoms: C_35  and  O_36
REMARK                            x       y       z     vdW  Elec       q    Type
REMARK                         _______ _______ _______ _____ _____    ______ ____
ROOT
ATOM      1  C   UNL     1     -66.146 -61.581 -77.134  0.00  0.00    +0.000 C 
ATOM      2  C   UNL     1     -65.452 -61.271 -75.742  0.00  0.00    +0.000 C 
ATOM      3  C   UNL     1     -66.139 -61.485 -74.389  0.00  0.00    +0.000 C 
ATOM      4  C   UNL     1     -65.803 -60.429 -78.273  0.00  0.00    +0.000 C 
ATOM      5  C   UNL     1     -67.677 -61.250 -74.331  0.00  0.00    +0.000 C 
ATOM      6  C   UNL     1     -67.585 -61.631 -76.847  0.00  0.00    +0.000 C 
ATOM      7  C   UNL     1     -68.340 -61.481 -75.569  0.00  0.00    +0.000 C 
ATOM      8  C   UNL     1     -64.215 -60.099 -78.353  0.00  0.00    +0.000 C 
ATOM      9  C   UNL     1     -68.379 -60.572 -73.143  0.00  0.00    +0.000 C 
ATOM     10  C   UNL     1     -63.457 -59.895 -79.607  0.00  0.00    +0.000 C 
ATOM     11  C   UNL     1     -64.153 -60.693 -75.902  0.00  0.00    +0.000 C 
ATOM     12  C   UNL     1     -65.578 -60.572 -73.399  0.00  0.00    +0.000 C 
ATOM     13  C   UNL     1     -66.139 -60.844 -79.648  0.00  0.00    +0.000 C 
ATOM     14  C   UNL     1     -63.853 -60.632 -81.029  0.00  0.00    +0.000 C 
ATOM     15  C   UNL     1     -65.636 -63.008 -77.588  0.00  0.00    +0.000 C 
ATOM     16  C   UNL     1     -65.283 -60.909 -80.892  0.00  0.00    +0.000 C 
ATOM     17  C   UNL     1     -67.501 -60.032 -71.983  0.00  0.00    +0.000 C 
ATOM     18  C   UNL     1     -63.612 -60.168 -77.201  0.00  0.00    +0.000 C 
ATOM     19  C   UNL     1     -65.881 -62.953 -73.960  0.00  0.00    +0.000 C 
ATOM     20  C   UNL     1     -66.127 -59.845 -72.217  0.00  0.00    +0.000 C 
ATOM     21  C   UNL     1     -66.501 -59.037 -77.951  0.00  0.00    +0.000 C 
ATOM     22  C   UNL     1     -62.698 -58.653 -79.757  0.00  0.00    +0.000 C 
ATOM     23  C   UNL     1     -63.484 -59.634 -82.069  0.00  0.00    +0.000 C 
ATOM     24  C   UNL     1     -62.202 -57.622 -80.744  0.00  0.00    +0.000 C 
ATOM     25  C   UNL     1     -69.415 -61.574 -72.534  0.00  0.00    +0.000 C 
ATOM     26  C   UNL     1     -62.726 -58.284 -81.981  0.00  0.00    +0.000 C 
ATOM     27  C   UNL     1     -62.866 -56.254 -80.500  0.00  0.00    +0.000 C 
ATOM     28  C   UNL     1     -60.665 -57.536 -80.745  0.00  0.00    +0.000 C 
ENDROOT
BRANCH  17  29
ATOM     29  O   UNL     1     -67.964 -60.024 -70.678  0.00  0.00    +0.000 OA
ATOM     30  H   UNL     1     -67.928 -60.924 -70.290  0.00  0.00    +0.000 HD
ENDBRANCH  17  29
BRANCH  14  32
ATOM     31  O   UNL     1     -62.753 -62.696 -80.256  0.00  0.00    +0.000 OA
ATOM     32  C   UNL     1     -62.993 -61.896 -81.151  0.00  0.00    +0.000 C 
BRANCH  32  33
ATOM     33  O   UNL     1     -62.413 -62.061 -82.360  0.00  0.00    +0.000 OA
ATOM     34  H   UNL     1     -63.152 -62.267 -82.972  0.00  0.00    +0.000 HD
ENDBRANCH  32  33
ENDBRANCH  14  32
BRANCH   9  35
ATOM     35  C   UNL     1     -69.105 -59.373 -73.672  0.00  0.00    +0.000 C 
BRANCH  35  36
ATOM     36  O   UNL     1     -69.742 -58.295 -74.137  0.00  0.00    +0.000 OA
ATOM     37  H   UNL     1     -70.692 -58.475 -74.259  0.00  0.00    +0.000 HD
ENDBRANCH  35  36
ENDBRANCH   9  35
TORSDOF 5
ENDMDL
MODEL 2
REMARK VINA RESULT:      -6.0      1.647      8.319
REMARK  Name = 73299_Hederagenin.pdbqt.pdb
REMARK  5 active torsions:
REMARK  status: ('A' for Active; 'I' for Inactive)
REMARK    1  A    between atoms: C_9  and  C_35
REMARK    2  A    between atoms: C_14  and  C_32
REMARK    3  A    between atoms: C_17  and  O_29
REMARK    4  A    between atoms: C_32  and  O_33
REMARK    5  A    between atoms: C_35  and  O_36
REMARK                            x       y       z     vdW  Elec       q    Type
REMARK                         _______ _______ _______ _____ _____    ______ ____
ROOT
ATOM      1  C   UNL     1     -66.371 -60.169 -77.401  0.00  0.00    +0.000 C 
ATOM      2  C   UNL     1     -64.863 -60.014 -77.865  0.00  0.00    +0.000 C 
ATOM      3  C   UNL     1     -64.443 -59.848 -79.330  0.00  0.00    +0.000 C 
ATOM      4  C   UNL     1     -66.542 -61.290 -76.195  0.00  0.00    +0.000 C 
ATOM      5  C   UNL     1     -65.304 -60.580 -80.400  0.00  0.00    +0.000 C 
ATOM      6  C   UNL     1     -67.109 -60.569 -78.605  0.00  0.00    +0.000 C 
ATOM      7  C   UNL     1     -66.659 -60.775 -80.013  0.00  0.00    +0.000 C 
ATOM      8  C   UNL     1     -65.470 -61.069 -74.995  0.00  0.00    +0.000 C 
ATOM      9  C   UNL     1     -64.700 -61.273 -81.634  0.00  0.00    +0.000 C 
ATOM     10  C   UNL     1     -65.780 -61.186 -73.553  0.00  0.00    +0.000 C 
ATOM     11  C   UNL     1     -63.946 -60.132 -76.774  0.00  0.00    +0.000 C 
ATOM     12  C   UNL     1     -63.089 -60.359 -79.517  0.00  0.00    +0.000 C 
ATOM     13  C   UNL     1     -67.846 -61.223 -75.509  0.00  0.00    +0.000 C 
ATOM     14  C   UNL     1     -67.266 -60.847 -72.921  0.00  0.00    +0.000 C 
ATOM     15  C   UNL     1     -66.850 -58.737 -76.925  0.00  0.00    +0.000 C 
ATOM     16  C   UNL     1     -68.179 -61.056 -74.045  0.00  0.00    +0.000 C 
ATOM     17  C   UNL     1     -63.155 -61.304 -81.775  0.00  0.00    +0.000 C 
ATOM     18  C   UNL     1     -64.315 -60.629 -75.405  0.00  0.00    +0.000 C 
ATOM     19  C   UNL     1     -64.487 -58.334 -79.661  0.00  0.00    +0.000 C 
ATOM     20  C   UNL     1     -62.376 -61.045 -80.633  0.00  0.00    +0.000 C 
ATOM     21  C   UNL     1     -66.287 -62.773 -76.711  0.00  0.00    +0.000 C 
ATOM     22  C   UNL     1     -64.972 -62.104 -72.749  0.00  0.00    +0.000 C 
ATOM     23  C   UNL     1     -67.404 -61.803 -71.789  0.00  0.00    +0.000 C 
ATOM     24  C   UNL     1     -64.981 -63.040 -71.562  0.00  0.00    +0.000 C 
ATOM     25  C   UNL     1     -65.286 -60.604 -82.921  0.00  0.00    +0.000 C 
ATOM     26  C   UNL     1     -66.396 -62.786 -71.139  0.00  0.00    +0.000 C 
ATOM     27  C   UNL     1     -64.768 -64.499 -72.003  0.00  0.00    +0.000 C 
ATOM     28  C   UNL     1     -63.972 -62.597 -70.488  0.00  0.00    +0.000 C 
ENDROOT
BRANCH  17  29
ATOM     29  O   UNL     1     -62.549 -61.275 -83.020  0.00  0.00    +0.000 OA
ATOM     30  H   UNL     1     -61.840 -61.949 -83.078  0.00  0.00    +0.000 HD
ENDBRANCH  17  29
BRANCH  14  32
ATOM     31  O   UNL     1     -67.728 -58.429 -72.976  0.00  0.00    +0.000 OA
ATOM     32  C   UNL     1     -67.235 -59.399 -72.417  0.00  0.00    +0.000 C 
BRANCH  32  33
ATOM     33  O   UNL     1     -66.528 -59.220 -71.280  0.00  0.00    +0.000 OA
ATOM     34  H   UNL     1     -65.852 -58.545 -71.502  0.00  0.00    +0.000 HD
ENDBRANCH  32  33
ENDBRANCH  14  32
BRANCH   9  35
ATOM     35  C   UNL     1     -65.116 -62.711 -81.593  0.00  0.00    +0.000 C 
BRANCH  35  36
ATOM     36  O   UNL     1     -65.473 -63.998 -81.561  0.00  0.00    +0.000 OA
ATOM     37  H   UNL     1     -66.382 -64.118 -81.892  0.00  0.00    +0.000 HD
ENDBRANCH  35  36
ENDBRANCH   9  35
TORSDOF 5
ENDMDL
MODEL 3
REMARK VINA RESULT:      -5.9     41.594     45.145
REMARK  Name = 73299_Hederagenin.pdbqt.pdb
REMARK  5 active torsions:
REMARK  status: ('A' for Active; 'I' for Inactive)
REMARK    1  A    between atoms: C_9  and  C_35
REMARK    2  A    between atoms: C_14  and  C_32
REMARK    3  A    between atoms: C_17  and  O_29
REMARK    4  A    between atoms: C_32  and  O_33
REMARK    5  A    between atoms: C_35  and  O_36
REMARK                            x       y       z     vdW  Elec       q    Type
REMARK                         _______ _______ _______ _____ _____    ______ ____
ROOT
ATOM      1  C   UNL     1     -67.418 -48.398 -34.311  0.00  0.00    +0.000 C 
ATOM      2  C   UNL     1     -66.995 -48.167 -32.801  0.00  0.00    +0.000 C 
ATOM      3  C   UNL     1     -67.781 -48.726 -31.609  0.00  0.00    +0.000 C 
ATOM      4  C   UNL     1     -67.208 -47.040 -35.235  0.00  0.00    +0.000 C 
ATOM      5  C   UNL     1     -69.325 -48.831 -31.766  0.00  0.00    +0.000 C 
ATOM      6  C   UNL     1     -68.831 -48.793 -34.263  0.00  0.00    +0.000 C 
ATOM      7  C   UNL     1     -69.755 -49.003 -33.111  0.00  0.00    +0.000 C 
ATOM      8  C   UNL     1     -65.741 -46.374 -35.022  0.00  0.00    +0.000 C 
ATOM      9  C   UNL     1     -70.310 -48.505 -30.630  0.00  0.00    +0.000 C 
ATOM     10  C   UNL     1     -64.897 -45.827 -36.107  0.00  0.00    +0.000 C 
ATOM     11  C   UNL     1     -65.854 -47.311 -32.682  0.00  0.00    +0.000 C 
ATOM     12  C   UNL     1     -67.574 -47.877 -30.440  0.00  0.00    +0.000 C 
ATOM     13  C   UNL     1     -67.262 -47.300 -36.685  0.00  0.00    +0.000 C 
ATOM     14  C   UNL     1     -64.930 -46.403 -37.653  0.00  0.00    +0.000 C 
ATOM     15  C   UNL     1     -66.540 -49.600 -34.850  0.00  0.00    +0.000 C 
ATOM     16  C   UNL     1     -66.264 -46.992 -37.777  0.00  0.00    +0.000 C 
ATOM     17  C   UNL     1     -69.734 -47.978 -29.289  0.00  0.00    +0.000 C 
ATOM     18  C   UNL     1     -65.289 -46.491 -33.807  0.00  0.00    +0.000 C 
ATOM     19  C   UNL     1     -67.248 -50.154 -31.326  0.00  0.00    +0.000 C 
ATOM     20  C   UNL     1     -68.421 -47.472 -29.280  0.00  0.00    +0.000 C 
ATOM     21  C   UNL     1     -68.242 -45.891 -34.860  0.00  0.00    +0.000 C 
ATOM     22  C   UNL     1     -64.432 -44.445 -35.984  0.00  0.00    +0.000 C 
ATOM     23  C   UNL     1     -64.672 -45.202 -38.492  0.00  0.00    +0.000 C 
ATOM     24  C   UNL     1     -64.066 -43.193 -36.748  0.00  0.00    +0.000 C 
ATOM     25  C   UNL     1     -71.156 -49.784 -30.317  0.00  0.00    +0.000 C 
ATOM     26  C   UNL     1     -64.263 -43.753 -38.123  0.00  0.00    +0.000 C 
ATOM     27  C   UNL     1     -65.052 -42.050 -36.447  0.00  0.00    +0.000 C 
ATOM     28  C   UNL     1     -62.603 -42.787 -36.496  0.00  0.00    +0.000 C 
ENDROOT
BRANCH  17  29
ATOM     29  O   UNL     1     -70.347 -48.268 -28.082  0.00  0.00    +0.000 OA
ATOM     30  H   UNL     1     -71.233 -47.852 -28.033  0.00  0.00    +0.000 HD
ENDBRANCH  17  29
BRANCH  14  32
ATOM     31  O   UNL     1     -63.093 -47.851 -36.882  0.00  0.00    +0.000 OA
ATOM     32  C   UNL     1     -63.794 -47.424 -37.790  0.00  0.00    +0.000 C 
BRANCH  32  33
ATOM     33  O   UNL     1     -63.538 -47.806 -39.061  0.00  0.00    +0.000 OA
ATOM     34  H   UNL     1     -62.620 -47.508 -39.237  0.00  0.00    +0.000 HD
ENDBRANCH  32  33
ENDBRANCH  14  32
BRANCH   9  35
ATOM     35  C   UNL     1     -71.219 -47.419 -31.117  0.00  0.00    +0.000 C 
BRANCH  35  36
ATOM     36  O   UNL     1     -72.041 -46.457 -31.543  0.00  0.00    +0.000 OA
ATOM     37  H   UNL     1     -72.209 -46.537 -32.500  0.00  0.00    +0.000 HD
ENDBRANCH  35  36
ENDBRANCH   9  35
TORSDOF 5
ENDMDL
MODEL 4
REMARK VINA RESULT:      -5.7     52.452     55.322
REMARK  Name = 73299_Hederagenin.pdbqt.pdb
REMARK  5 active torsions:
REMARK  status: ('A' for Active; 'I' for Inactive)
REMARK    1  A    between atoms: C_9  and  C_35
REMARK    2  A    between atoms: C_14  and  C_32
REMARK    3  A    between atoms: C_17  and  O_29
REMARK    4  A    between atoms: C_32  and  O_33
REMARK    5  A    between atoms: C_35  and  O_36
REMARK                            x       y       z     vdW  Elec       q    Type
REMARK                         _______ _______ _______ _____ _____    ______ ____
ROOT
ATOM      1  C   UNL     1     -74.639 -58.659 -24.364  0.00  0.00    +0.000 C 
ATOM      2  C   UNL     1     -73.265 -59.274 -23.865  0.00  0.00    +0.000 C 
ATOM      3  C   UNL     1     -72.845 -60.724 -24.126  0.00  0.00    +0.000 C 
ATOM      4  C   UNL     1     -75.327 -57.667 -23.231  0.00  0.00    +0.000 C 
ATOM      5  C   UNL     1     -73.976 -61.793 -24.163  0.00  0.00    +0.000 C 
ATOM      6  C   UNL     1     -75.499 -59.812 -24.652  0.00  0.00    +0.000 C 
ATOM      7  C   UNL     1     -75.238 -61.279 -24.571  0.00  0.00    +0.000 C 
ATOM      8  C   UNL     1     -74.267 -56.592 -22.630  0.00  0.00    +0.000 C 
ATOM      9  C   UNL     1     -73.824 -63.199 -23.558  0.00  0.00    +0.000 C 
ATOM     10  C   UNL     1     -74.568 -55.169 -22.362  0.00  0.00    +0.000 C 
ATOM     11  C   UNL     1     -72.511 -58.348 -23.076  0.00  0.00    +0.000 C 
ATOM     12  C   UNL     1     -71.933 -61.172 -23.078  0.00  0.00    +0.000 C 
ATOM     13  C   UNL     1     -76.409 -56.821 -23.769  0.00  0.00    +0.000 C 
ATOM     14  C   UNL     1     -75.672 -54.302 -23.230  0.00  0.00    +0.000 C 
ATOM     15  C   UNL     1     -74.325 -57.872 -25.701  0.00  0.00    +0.000 C 
ATOM     16  C   UNL     1     -76.587 -55.320 -23.747  0.00  0.00    +0.000 C 
ATOM     17  C   UNL     1     -72.505 -63.538 -22.813  0.00  0.00    +0.000 C 
ATOM     18  C   UNL     1     -73.055 -57.057 -22.532  0.00  0.00    +0.000 C 
ATOM     19  C   UNL     1     -72.128 -60.764 -25.501  0.00  0.00    +0.000 C 
ATOM     20  C   UNL     1     -71.681 -62.476 -22.399  0.00  0.00    +0.000 C 
ATOM     21  C   UNL     1     -75.860 -58.474 -21.969  0.00  0.00    +0.000 C 
ATOM     22  C   UNL     1     -74.316 -54.655 -21.015  0.00  0.00    +0.000 C 
ATOM     23  C   UNL     1     -76.250 -53.357 -22.238  0.00  0.00    +0.000 C 
ATOM     24  C   UNL     1     -74.772 -53.669 -19.965  0.00  0.00    +0.000 C 
ATOM     25  C   UNL     1     -74.017 -64.258 -24.694  0.00  0.00    +0.000 C 
ATOM     26  C   UNL     1     -75.861 -53.031 -20.773  0.00  0.00    +0.000 C 
ATOM     27  C   UNL     1     -75.328 -54.393 -18.725  0.00  0.00    +0.000 C 
ATOM     28  C   UNL     1     -73.658 -52.668 -19.610  0.00  0.00    +0.000 C 
ENDROOT
BRANCH  17  29
ATOM     29  O   UNL     1     -71.989 -64.823 -22.819  0.00  0.00    +0.000 OA
ATOM     30  H   UNL     1     -71.535 -65.020 -21.973  0.00  0.00    +0.000 HD
ENDBRANCH  17  29
BRANCH  14  32
ATOM     31  O   UNL     1     -74.650 -52.353 -24.336  0.00  0.00    +0.000 OA
ATOM     32  C   UNL     1     -74.910 -53.549 -24.327  0.00  0.00    +0.000 C 
BRANCH  32  33
ATOM     33  O   UNL     1     -74.574 -54.308 -25.394  0.00  0.00    +0.000 OA
ATOM     34  H   UNL     1     -74.695 -55.235 -25.096  0.00  0.00    +0.000 HD
ENDBRANCH  32  33
ENDBRANCH  14  32
BRANCH   9  35
ATOM     35  C   UNL     1     -74.904 -63.370 -22.535  0.00  0.00    +0.000 C 
BRANCH  35  36
ATOM     36  O   UNL     1     -75.858 -63.530 -21.614  0.00  0.00    +0.000 OA
ATOM     37  H   UNL     1     -75.745 -64.371 -21.135  0.00  0.00    +0.000 HD
ENDBRANCH  35  36
ENDBRANCH   9  35
TORSDOF 5
ENDMDL
MODEL 5
REMARK VINA RESULT:      -5.7     42.528     48.648
REMARK  Name = 73299_Hederagenin.pdbqt.pdb
REMARK  5 active torsions:
REMARK  status: ('A' for Active; 'I' for Inactive)
REMARK    1  A    between atoms: C_9  and  C_35
REMARK    2  A    between atoms: C_14  and  C_32
REMARK    3  A    between atoms: C_17  and  O_29
REMARK    4  A    between atoms: C_32  and  O_33
REMARK    5  A    between atoms: C_35  and  O_36
REMARK                            x       y       z     vdW  Elec       q    Type
REMARK                         _______ _______ _______ _____ _____    ______ ____
ROOT
ATOM      1  C   UNL     1     -72.617 -57.639 -31.010  0.00  0.00    +0.000 C 
ATOM      2  C   UNL     1     -71.105 -57.162 -31.006  0.00  0.00    +0.000 C 
ATOM      3  C   UNL     1     -70.219 -57.153 -32.257  0.00  0.00    +0.000 C 
ATOM      4  C   UNL     1     -72.995 -58.529 -29.666  0.00  0.00    +0.000 C 
ATOM      5  C   UNL     1     -70.467 -58.273 -33.308  0.00  0.00    +0.000 C 
ATOM      6  C   UNL     1     -72.770 -58.436 -32.233  0.00  0.00    +0.000 C 
ATOM      7  C   UNL     1     -71.804 -58.760 -33.324  0.00  0.00    +0.000 C 
ATOM      8  C   UNL     1     -72.502 -57.809 -28.295  0.00  0.00    +0.000 C 
ATOM      9  C   UNL     1     -69.332 -58.984 -34.064  0.00  0.00    +0.000 C 
ATOM     10  C   UNL     1     -73.289 -57.746 -27.045  0.00  0.00    +0.000 C 
ATOM     11  C   UNL     1     -70.646 -56.826 -29.693  0.00  0.00    +0.000 C 
ATOM     12  C   UNL     1     -68.819 -57.297 -31.872  0.00  0.00    +0.000 C 
ATOM     13  C   UNL     1     -74.446 -58.700 -29.463  0.00  0.00    +0.000 C 
ATOM     14  C   UNL     1     -74.939 -57.721 -27.019  0.00  0.00    +0.000 C 
ATOM     15  C   UNL     1     -73.506 -56.332 -31.103  0.00  0.00    +0.000 C 
ATOM     16  C   UNL     1     -75.317 -58.371 -28.273  0.00  0.00    +0.000 C 
ATOM     17  C   UNL     1     -67.868 -58.614 -33.705  0.00  0.00    +0.000 C 
ATOM     18  C   UNL     1     -71.387 -57.150 -28.427  0.00  0.00    +0.000 C 
ATOM     19  C   UNL     1     -70.432 -55.794 -32.973  0.00  0.00    +0.000 C 
ATOM     20  C   UNL     1     -67.627 -57.951 -32.488  0.00  0.00    +0.000 C 
ATOM     21  C   UNL     1     -72.285 -59.951 -29.667  0.00  0.00    +0.000 C 
ATOM     22  C   UNL     1     -72.670 -58.247 -25.817  0.00  0.00    +0.000 C 
ATOM     23  C   UNL     1     -75.292 -58.458 -25.776  0.00  0.00    +0.000 C 
ATOM     24  C   UNL     1     -72.930 -58.920 -24.489  0.00  0.00    +0.000 C 
ATOM     25  C   UNL     1     -69.523 -58.744 -35.598  0.00  0.00    +0.000 C 
ATOM     26  C   UNL     1     -74.422 -58.993 -24.609  0.00  0.00    +0.000 C 
ATOM     27  C   UNL     1     -72.290 -60.319 -24.440  0.00  0.00    +0.000 C 
ATOM     28  C   UNL     1     -72.491 -58.031 -23.312  0.00  0.00    +0.000 C 
ENDROOT
BRANCH  17  29
ATOM     29  O   UNL     1     -66.866 -58.643 -34.660  0.00  0.00    +0.000 OA
ATOM     30  H   UNL     1     -67.245 -58.713 -35.561  0.00  0.00    +0.000 HD
ENDBRANCH  17  29
BRANCH  14  32
ATOM     31  O   UNL     1     -75.056 -55.356 -27.699  0.00  0.00    +0.000 OA
ATOM     32  C   UNL     1     -75.378 -56.254 -26.931  0.00  0.00    +0.000 C 
BRANCH  32  33
ATOM     33  O   UNL     1     -76.134 -55.962 -25.850  0.00  0.00    +0.000 OA
ATOM     34  H   UNL     1     -75.608 -56.266 -25.080  0.00  0.00    +0.000 HD
ENDBRANCH  32  33
ENDBRANCH  14  32
BRANCH   9  35
ATOM     35  C   UNL     1     -69.444 -60.449 -33.776  0.00  0.00    +0.000 C 
BRANCH  35  36
ATOM     36  O   UNL     1     -69.538 -61.754 -33.506  0.00  0.00    +0.000 OA
ATOM     37  H   UNL     1     -69.190 -62.290 -34.241  0.00  0.00    +0.000 HD
ENDBRANCH  35  36
ENDBRANCH   9  35
TORSDOF 5
ENDMDL
MODEL 6
REMARK VINA RESULT:      -5.7     20.986     24.177
REMARK  Name = 73299_Hederagenin.pdbqt.pdb
REMARK  5 active torsions:
REMARK  status: ('A' for Active; 'I' for Inactive)
REMARK    1  A    between atoms: C_9  and  C_35
REMARK    2  A    between atoms: C_14  and  C_32
REMARK    3  A    between atoms: C_17  and  O_29
REMARK    4  A    between atoms: C_32  and  O_33
REMARK    5  A    between atoms: C_35  and  O_36
REMARK                            x       y       z     vdW  Elec       q    Type
REMARK                         _______ _______ _______ _____ _____    ______ ____
ROOT
ATOM      1  C   UNL     1     -65.595 -45.450 -58.188  0.00  0.00    +0.000 C 
ATOM      2  C   UNL     1     -64.611 -46.346 -59.051  0.00  0.00    +0.000 C 
ATOM      3  C   UNL     1     -63.107 -46.076 -59.167  0.00  0.00    +0.000 C 
ATOM      4  C   UNL     1     -67.044 -45.201 -58.950  0.00  0.00    +0.000 C 
ATOM      5  C   UNL     1     -62.649 -44.589 -59.128  0.00  0.00    +0.000 C 
ATOM      6  C   UNL     1     -64.884 -44.184 -57.977  0.00  0.00    +0.000 C 
ATOM      7  C   UNL     1     -63.522 -43.738 -58.395  0.00  0.00    +0.000 C 
ATOM      8  C   UNL     1     -67.685 -46.582 -59.516  0.00  0.00    +0.000 C 
ATOM      9  C   UNL     1     -61.525 -44.033 -60.018  0.00  0.00    +0.000 C 
ATOM     10  C   UNL     1     -69.117 -46.944 -59.434  0.00  0.00    +0.000 C 
ATOM     11  C   UNL     1     -65.303 -47.372 -59.768  0.00  0.00    +0.000 C 
ATOM     12  C   UNL     1     -62.609 -46.594 -60.437  0.00  0.00    +0.000 C 
ATOM     13  C   UNL     1     -68.095 -44.673 -58.059  0.00  0.00    +0.000 C 
ATOM     14  C   UNL     1     -70.108 -46.432 -58.218  0.00  0.00    +0.000 C 
ATOM     15  C   UNL     1     -65.794 -46.195 -56.806  0.00  0.00    +0.000 C 
ATOM     16  C   UNL     1     -69.477 -45.199 -57.750  0.00  0.00    +0.000 C 
ATOM     17  C   UNL     1     -60.868 -44.986 -61.052  0.00  0.00    +0.000 C 
ATOM     18  C   UNL     1     -66.795 -47.436 -59.932  0.00  0.00    +0.000 C 
ATOM     19  C   UNL     1     -62.409 -46.804 -57.989  0.00  0.00    +0.000 C 
ATOM     20  C   UNL     1     -61.549 -46.167 -61.396  0.00  0.00    +0.000 C 
ATOM     21  C   UNL     1     -66.901 -44.259 -60.223  0.00  0.00    +0.000 C 
ATOM     22  C   UNL     1     -69.809 -47.293 -60.676  0.00  0.00    +0.000 C 
ATOM     23  C   UNL     1     -71.433 -46.271 -58.875  0.00  0.00    +0.000 C 
ATOM     24  C   UNL     1     -71.134 -47.255 -61.403  0.00  0.00    +0.000 C 
ATOM     25  C   UNL     1     -60.390 -43.469 -59.099  0.00  0.00    +0.000 C 
ATOM     26  C   UNL     1     -71.936 -46.647 -60.294  0.00  0.00    +0.000 C 
ATOM     27  C   UNL     1     -71.066 -46.332 -62.634  0.00  0.00    +0.000 C 
ATOM     28  C   UNL     1     -71.623 -48.671 -61.758  0.00  0.00    +0.000 C 
ENDROOT
BRANCH  17  29
ATOM     29  O   UNL     1     -59.534 -44.857 -61.399  0.00  0.00    +0.000 OA
ATOM     30  H   UNL     1     -59.358 -43.975 -61.789  0.00  0.00    +0.000 HD
ENDBRANCH  17  29
BRANCH  14  32
ATOM     31  O   UNL     1     -70.617 -47.445 -56.031  0.00  0.00    +0.000 OA
ATOM     32  C   UNL     1     -70.151 -47.540 -57.159  0.00  0.00    +0.000 C 
BRANCH  32  33
ATOM     33  O   UNL     1     -69.544 -48.689 -57.530  0.00  0.00    +0.000 OA
ATOM     34  H   UNL     1     -68.614 -48.596 -57.231  0.00  0.00    +0.000 HD
ENDBRANCH  32  33
ENDBRANCH  14  32
BRANCH   9  35
ATOM     35  C   UNL     1     -62.102 -42.915 -60.830  0.00  0.00    +0.000 C 
BRANCH  35  36
ATOM     36  O   UNL     1     -62.614 -41.909 -61.543  0.00  0.00    +0.000 OA
ATOM     37  H   UNL     1     -62.333 -41.960 -62.475  0.00  0.00    +0.000 HD
ENDBRANCH  35  36
ENDBRANCH   9  35
TORSDOF 5
ENDMDL
MODEL 7
REMARK VINA RESULT:      -5.7     24.144     28.717
REMARK  Name = 73299_Hederagenin.pdbqt.pdb
REMARK  5 active torsions:
REMARK  status: ('A' for Active; 'I' for Inactive)
REMARK    1  A    between atoms: C_9  and  C_35
REMARK    2  A    between atoms: C_14  and  C_32
REMARK    3  A    between atoms: C_17  and  O_29
REMARK    4  A    between atoms: C_32  and  O_33
REMARK    5  A    between atoms: C_35  and  O_36
REMARK                            x       y       z     vdW  Elec       q    Type
REMARK                         _______ _______ _______ _____ _____    ______ ____
ROOT
ATOM      1  C   UNL     1     -65.305 -56.979 -49.090  0.00  0.00    +0.000 C 
ATOM      2  C   UNL     1     -64.030 -56.570 -48.240  0.00  0.00    +0.000 C 
ATOM      3  C   UNL     1     -63.642 -57.247 -46.921  0.00  0.00    +0.000 C 
ATOM      4  C   UNL     1     -66.085 -55.661 -49.719  0.00  0.00    +0.000 C 
ATOM      5  C   UNL     1     -64.804 -57.745 -46.013  0.00  0.00    +0.000 C 
ATOM      6  C   UNL     1     -66.171 -57.713 -48.161  0.00  0.00    +0.000 C 
ATOM      7  C   UNL     1     -65.984 -58.090 -46.729  0.00  0.00    +0.000 C 
ATOM      8  C   UNL     1     -65.062 -54.637 -50.458  0.00  0.00    +0.000 C 
ATOM      9  C   UNL     1     -64.786 -57.620 -44.480  0.00  0.00    +0.000 C 
ATOM     10  C   UNL     1     -65.334 -53.952 -51.741  0.00  0.00    +0.000 C 
ATOM     11  C   UNL     1     -63.340 -55.450 -48.803  0.00  0.00    +0.000 C 
ATOM     12  C   UNL     1     -62.885 -56.314 -46.091  0.00  0.00    +0.000 C 
ATOM     13  C   UNL     1     -67.056 -56.001 -50.776  0.00  0.00    +0.000 C 
ATOM     14  C   UNL     1     -66.286 -54.597 -52.924  0.00  0.00    +0.000 C 
ATOM     15  C   UNL     1     -64.798 -57.947 -50.235  0.00  0.00    +0.000 C 
ATOM     16  C   UNL     1     -67.172 -55.508 -52.200  0.00  0.00    +0.000 C 
ATOM     17  C   UNL     1     -63.584 -56.896 -43.818  0.00  0.00    +0.000 C 
ATOM     18  C   UNL     1     -63.892 -54.573 -49.892  0.00  0.00    +0.000 C 
ATOM     19  C   UNL     1     -62.765 -58.478 -47.265  0.00  0.00    +0.000 C 
ATOM     20  C   UNL     1     -62.773 -56.076 -44.622  0.00  0.00    +0.000 C 
ATOM     21  C   UNL     1     -66.801 -54.792 -48.596  0.00  0.00    +0.000 C 
ATOM     22  C   UNL     1     -65.227 -52.493 -51.775  0.00  0.00    +0.000 C 
ATOM     23  C   UNL     1     -66.941 -53.415 -53.546  0.00  0.00    +0.000 C 
ATOM     24  C   UNL     1     -65.766 -51.230 -52.408  0.00  0.00    +0.000 C 
ATOM     25  C   UNL     1     -64.884 -59.052 -43.859  0.00  0.00    +0.000 C 
ATOM     26  C   UNL     1     -66.721 -51.892 -53.354  0.00  0.00    +0.000 C 
ATOM     27  C   UNL     1     -66.499 -50.358 -51.372  0.00  0.00    +0.000 C 
ATOM     28  C   UNL     1     -64.663 -50.457 -53.151  0.00  0.00    +0.000 C 
ENDROOT
BRANCH  17  29
ATOM     29  O   UNL     1     -63.125 -57.268 -42.565  0.00  0.00    +0.000 OA
ATOM     30  H   UNL     1     -63.306 -56.567 -41.905  0.00  0.00    +0.000 HD
ENDBRANCH  17  29
BRANCH  14  32
ATOM     31  O   UNL     1     -64.841 -56.401 -53.775  0.00  0.00    +0.000 OA
ATOM     32  C   UNL     1     -65.364 -55.305 -53.924  0.00  0.00    +0.000 C 
BRANCH  32  33
ATOM     33  O   UNL     1     -65.080 -54.580 -55.029  0.00  0.00    +0.000 OA
ATOM     34  H   UNL     1     -65.035 -55.234 -55.759  0.00  0.00    +0.000 HD
ENDBRANCH  32  33
ENDBRANCH  14  32
BRANCH   9  35
ATOM     35  C   UNL     1     -65.989 -56.825 -44.078  0.00  0.00    +0.000 C 
BRANCH  35  36
ATOM     36  O   UNL     1     -67.062 -56.121 -43.705  0.00  0.00    +0.000 OA
ATOM     37  H   UNL     1     -67.886 -56.585 -43.942  0.00  0.00    +0.000 HD
ENDBRANCH  35  36
ENDBRANCH   9  35
TORSDOF 5
ENDMDL
MODEL 8
REMARK VINA RESULT:      -5.7     33.421     39.536
REMARK  Name = 73299_Hederagenin.pdbqt.pdb
REMARK  5 active torsions:
REMARK  status: ('A' for Active; 'I' for Inactive)
REMARK    1  A    between atoms: C_9  and  C_35
REMARK    2  A    between atoms: C_14  and  C_32
REMARK    3  A    between atoms: C_17  and  O_29
REMARK    4  A    between atoms: C_32  and  O_33
REMARK    5  A    between atoms: C_35  and  O_36
REMARK                            x       y       z     vdW  Elec       q    Type
REMARK                         _______ _______ _______ _____ _____    ______ ____
ROOT
ATOM      1  C   UNL     1     -69.532 -56.464 -39.781  0.00  0.00    +0.000 C 
ATOM      2  C   UNL     1     -68.059 -55.947 -40.061  0.00  0.00    +0.000 C 
ATOM      3  C   UNL     1     -67.496 -55.725 -41.469  0.00  0.00    +0.000 C 
ATOM      4  C   UNL     1     -69.586 -57.554 -38.536  0.00  0.00    +0.000 C 
ATOM      5  C   UNL     1     -67.994 -56.684 -42.589  0.00  0.00    +0.000 C 
ATOM      6  C   UNL     1     -69.976 -57.074 -41.039  0.00  0.00    +0.000 C 
ATOM      7  C   UNL     1     -69.299 -57.203 -42.363  0.00  0.00    +0.000 C 
ATOM      8  C   UNL     1     -68.776 -57.032 -37.227  0.00  0.00    +0.000 C 
ATOM      9  C   UNL     1     -67.075 -57.239 -43.690  0.00  0.00    +0.000 C 
ATOM     10  C   UNL     1     -69.244 -57.180 -35.831  0.00  0.00    +0.000 C 
ATOM     11  C   UNL     1     -67.300 -55.796 -38.858  0.00  0.00    +0.000 C 
ATOM     12  C   UNL     1     -66.045 -55.883 -41.451  0.00  0.00    +0.000 C 
ATOM     13  C   UNL     1     -70.948 -57.798 -38.025  0.00  0.00    +0.000 C 
ATOM     14  C   UNL     1     -70.840 -57.209 -35.414  0.00  0.00    +0.000 C 
ATOM     15  C   UNL     1     -70.410 -55.185 -39.461  0.00  0.00    +0.000 C 
ATOM     16  C   UNL     1     -71.509 -57.676 -36.628  0.00  0.00    +0.000 C 
ATOM     17  C   UNL     1     -65.565 -56.882 -43.634  0.00  0.00    +0.000 C 
ATOM     18  C   UNL     1     -67.721 -56.327 -37.517  0.00  0.00    +0.000 C 
ATOM     19  C   UNL     1     -67.865 -54.282 -41.899  0.00  0.00    +0.000 C 
ATOM     20  C   UNL     1     -65.038 -56.400 -42.423  0.00  0.00    +0.000 C 
ATOM     21  C   UNL     1     -68.905 -58.939 -38.919  0.00  0.00    +0.000 C 
ATOM     22  C   UNL     1     -68.353 -57.838 -34.875  0.00  0.00    +0.000 C 
ATOM     23  C   UNL     1     -70.892 -58.133 -34.249  0.00  0.00    +0.000 C 
ATOM     24  C   UNL     1     -68.294 -58.709 -33.641  0.00  0.00    +0.000 C 
ATOM     25  C   UNL     1     -67.624 -56.780 -45.081  0.00  0.00    +0.000 C 
ATOM     26  C   UNL     1     -69.772 -58.809 -33.416  0.00  0.00    +0.000 C 
ATOM     27  C   UNL     1     -67.669 -60.080 -33.957  0.00  0.00    +0.000 C 
ATOM     28  C   UNL     1     -67.583 -57.993 -32.479  0.00  0.00    +0.000 C 
ENDROOT
BRANCH  17  29
ATOM     29  O   UNL     1     -64.819 -56.739 -44.792  0.00  0.00    +0.000 OA
ATOM     30  H   UNL     1     -64.435 -57.597 -45.068  0.00  0.00    +0.000 HD
ENDBRANCH  17  29
BRANCH  14  32
ATOM     31  O   UNL     1     -71.661 -54.911 -35.747  0.00  0.00    +0.000 OA
ATOM     32  C   UNL     1     -71.236 -55.785 -35.004  0.00  0.00    +0.000 C 
BRANCH  32  33
ATOM     33  O   UNL     1     -71.014 -55.497 -33.702  0.00  0.00    +0.000 OA
ATOM     34  H   UNL     1     -71.114 -56.352 -33.231  0.00  0.00    +0.000 HD
ENDBRANCH  32  33
ENDBRANCH  14  32
BRANCH   9  35
ATOM     35  C   UNL     1     -67.124 -58.733 -43.609  0.00  0.00    +0.000 C 
BRANCH  35  36
ATOM     36  O   UNL     1     -67.177 -60.066 -43.525  0.00  0.00    +0.000 OA
ATOM     37  H   UNL     1     -66.289 -60.458 -43.607  0.00  0.00    +0.000 HD
ENDBRANCH  35  36
ENDBRANCH   9  35
TORSDOF 5
ENDMDL
MODEL 9
REMARK VINA RESULT:      -5.6     46.454     50.775
REMARK  Name = 73299_Hederagenin.pdbqt.pdb
REMARK  5 active torsions:
REMARK  status: ('A' for Active; 'I' for Inactive)
REMARK    1  A    between atoms: C_9  and  C_35
REMARK    2  A    between atoms: C_14  and  C_32
REMARK    3  A    between atoms: C_17  and  O_29
REMARK    4  A    between atoms: C_32  and  O_33
REMARK    5  A    between atoms: C_35  and  O_36
REMARK                            x       y       z     vdW  Elec       q    Type
REMARK                         _______ _______ _______ _____ _____    ______ ____
ROOT
ATOM      1  C   UNL     1     -72.294 -58.678 -26.697  0.00  0.00    +0.000 C 
ATOM      2  C   UNL     1     -73.254 -58.144 -25.554  0.00  0.00    +0.000 C 
ATOM      3  C   UNL     1     -73.687 -58.989 -24.351  0.00  0.00    +0.000 C 
ATOM      4  C   UNL     1     -72.773 -58.177 -28.201  0.00  0.00    +0.000 C 
ATOM      5  C   UNL     1     -73.866 -60.517 -24.588  0.00  0.00    +0.000 C 
ATOM      6  C   UNL     1     -72.335 -60.141 -26.588  0.00  0.00    +0.000 C 
ATOM      7  C   UNL     1     -73.050 -61.036 -25.631  0.00  0.00    +0.000 C 
ATOM      8  C   UNL     1     -73.082 -56.583 -28.248  0.00  0.00    +0.000 C 
ATOM      9  C   UNL     1     -75.004 -61.337 -23.957  0.00  0.00    +0.000 C 
ATOM     10  C   UNL     1     -72.689 -55.679 -29.351  0.00  0.00    +0.000 C 
ATOM     11  C   UNL     1     -73.731 -56.822 -25.821  0.00  0.00    +0.000 C 
ATOM     12  C   UNL     1     -74.981 -58.526 -23.862  0.00  0.00    +0.000 C 
ATOM     13  C   UNL     1     -71.741 -58.359 -29.239  0.00  0.00    +0.000 C 
ATOM     14  C   UNL     1     -71.349 -55.924 -30.283  0.00  0.00    +0.000 C 
ATOM     15  C   UNL     1     -70.841 -58.152 -26.354  0.00  0.00    +0.000 C 
ATOM     16  C   UNL     1     -71.121 -57.366 -30.194  0.00  0.00    +0.000 C 
ATOM     17  C   UNL     1     -76.062 -60.589 -23.104  0.00  0.00    +0.000 C 
ATOM     18  C   UNL     1     -73.591 -56.120 -27.143  0.00  0.00    +0.000 C 
ATOM     19  C   UNL     1     -72.612 -58.817 -23.247  0.00  0.00    +0.000 C 
ATOM     20  C   UNL     1     -76.164 -59.193 -23.242  0.00  0.00    +0.000 C 
ATOM     21  C   UNL     1     -74.124 -58.875 -28.665  0.00  0.00    +0.000 C 
ATOM     22  C   UNL     1     -73.735 -54.879 -29.989  0.00  0.00    +0.000 C 
ATOM     23  C   UNL     1     -71.743 -55.412 -31.623  0.00  0.00    +0.000 C 
ATOM     24  C   UNL     1     -74.188 -54.247 -31.285  0.00  0.00    +0.000 C 
ATOM     25  C   UNL     1     -74.378 -62.460 -23.066  0.00  0.00    +0.000 C 
ATOM     26  C   UNL     1     -72.998 -54.639 -32.106  0.00  0.00    +0.000 C 
ATOM     27  C   UNL     1     -75.481 -54.903 -31.802  0.00  0.00    +0.000 C 
ATOM     28  C   UNL     1     -74.317 -52.719 -31.152  0.00  0.00    +0.000 C 
ENDROOT
BRANCH  17  29
ATOM     29  O   UNL     1     -76.675 -61.200 -22.024  0.00  0.00    +0.000 OA
ATOM     30  H   UNL     1     -76.111 -61.916 -21.662  0.00  0.00    +0.000 HD
ENDBRANCH  17  29
BRANCH  14  32
ATOM     31  O   UNL     1     -69.960 -54.951 -28.497  0.00  0.00    +0.000 OA
ATOM     32  C   UNL     1     -70.212 -55.085 -29.687  0.00  0.00    +0.000 C 
BRANCH  32  33
ATOM     33  O   UNL     1     -69.491 -54.396 -30.599  0.00  0.00    +0.000 OA
ATOM     34  H   UNL     1     -69.766 -54.757 -31.469  0.00  0.00    +0.000 HD
ENDBRANCH  32  33
ENDBRANCH  14  32
BRANCH   9  35
ATOM     35  C   UNL     1     -75.778 -61.968 -25.073  0.00  0.00    +0.000 C 
BRANCH  35  36
ATOM     36  O   UNL     1     -76.457 -62.538 -26.072  0.00  0.00    +0.000 OA
ATOM     37  H   UNL     1     -76.106 -63.425 -26.274  0.00  0.00    +0.000 HD
ENDBRANCH  35  36
ENDBRANCH   9  35
TORSDOF 5
ENDMDL
