MODEL 1
REMARK VINA RESULT:      -6.5      0.000      0.000
REMARK  Name = 73659_MaslinicAcid.pdbqt.pdb
REMARK  4 active torsions:
REMARK  status: ('A' for Active; 'I' for Inactive)
REMARK    1  A    between atoms: C_14  and  C_35
REMARK    2  A    between atoms: C_17  and  O_30
REMARK    3  A    between atoms: C_19  and  O_32
REMARK    4  A    between atoms: C_35  and  O_36
REMARK                            x       y       z     vdW  Elec       q    Type
REMARK                         _______ _______ _______ _____ _____    ______ ____
ROOT
ATOM      1  C   UNL     1     -66.482 -62.184 -75.929  0.00  0.00    +0.000 C 
ATOM      2  C   UNL     1     -65.765 -61.739 -74.583  0.00  0.00    +0.000 C 
ATOM      3  C   UNL     1     -66.311 -62.062 -73.190  0.00  0.00    +0.000 C 
ATOM      4  C   UNL     1     -66.420 -61.006 -77.090  0.00  0.00    +0.000 C 
ATOM      5  C   UNL     1     -67.834 -62.136 -73.030  0.00  0.00    +0.000 C 
ATOM      6  C   UNL     1     -67.865 -62.485 -75.545  0.00  0.00    +0.000 C 
ATOM      7  C   UNL     1     -68.542 -62.478 -74.214  0.00  0.00    +0.000 C 
ATOM      8  C   UNL     1     -64.921 -60.406 -77.275  0.00  0.00    +0.000 C 
ATOM      9  C   UNL     1     -68.484 -61.712 -71.722  0.00  0.00    +0.000 C 
ATOM     10  C   UNL     1     -64.283 -60.110 -78.576  0.00  0.00    +0.000 C 
ATOM     11  C   UNL     1     -64.602 -60.942 -74.828  0.00  0.00    +0.000 C 
ATOM     12  C   UNL     1     -65.911 -61.028 -72.249  0.00  0.00    +0.000 C 
ATOM     13  C   UNL     1     -66.767 -61.492 -78.438  0.00  0.00    +0.000 C 
ATOM     14  C   UNL     1     -64.634 -60.937 -79.961  0.00  0.00    +0.000 C 
ATOM     15  C   UNL     1     -65.758 -63.507 -76.410  0.00  0.00    +0.000 C 
ATOM     16  C   UNL     1     -65.989 -61.439 -79.733  0.00  0.00    +0.000 C 
ATOM     17  C   UNL     1     -67.670 -60.834 -70.738  0.00  0.00    +0.000 C 
ATOM     18  C   UNL     1     -65.727 -63.430 -72.764  0.00  0.00    +0.000 C 
ATOM     19  C   UNL     1     -66.377 -60.370 -71.116  0.00  0.00    +0.000 C 
ATOM     20  C   UNL     1     -64.246 -60.350 -76.162  0.00  0.00    +0.000 C 
ATOM     21  C   UNL     1     -67.327 -59.755 -76.721  0.00  0.00    +0.000 C 
ATOM     22  C   UNL     1     -63.747 -58.767 -78.790  0.00  0.00    +0.000 C 
ATOM     23  C   UNL     1     -64.491 -59.918 -81.035  0.00  0.00    +0.000 C 
ATOM     24  C   UNL     1     -63.480 -57.693 -79.821  0.00  0.00    +0.000 C 
ATOM     25  C   UNL     1     -69.749 -60.845 -72.053  0.00  0.00    +0.000 C 
ATOM     26  C   UNL     1     -68.946 -62.977 -70.944  0.00  0.00    +0.000 C 
ATOM     27  C   UNL     1     -63.959 -58.462 -81.015  0.00  0.00    +0.000 C 
ATOM     28  C   UNL     1     -61.979 -57.364 -79.915  0.00  0.00    +0.000 C 
ATOM     29  C   UNL     1     -64.342 -56.445 -79.560  0.00  0.00    +0.000 C 
ENDROOT
BRANCH  17  30
ATOM     30  O   UNL     1     -68.119 -60.479 -69.468  0.00  0.00    +0.000 OA
ATOM     31  H   UNL     1     -67.798 -61.109 -68.791  0.00  0.00    +0.000 HD
ENDBRANCH  17  30
BRANCH  19  32
ATOM     32  O   UNL     1     -65.564 -59.757 -70.212  0.00  0.00    +0.000 OA
ATOM     33  H   UNL     1     -65.285 -58.877 -70.531  0.00  0.00    +0.000 HD
ENDBRANCH  19  32
BRANCH  14  35
ATOM     34  O   UNL     1     -63.708 -63.210 -79.744  0.00  0.00    +0.000 OA
ATOM     35  C   UNL     1     -63.590 -62.049 -80.114  0.00  0.00    +0.000 C 
BRANCH  35  36
ATOM     36  O   UNL     1     -62.421 -61.642 -80.657  0.00  0.00    +0.000 OA
ATOM     37  H   UNL     1     -61.773 -61.671 -79.919  0.00  0.00    +0.000 HD
ENDBRANCH  35  36
ENDBRANCH  14  35
TORSDOF 4
ENDMDL
MODEL 2
REMARK VINA RESULT:      -6.4     56.449     59.693
REMARK  Name = 73659_MaslinicAcid.pdbqt.pdb
REMARK  4 active torsions:
REMARK  status: ('A' for Active; 'I' for Inactive)
REMARK    1  A    between atoms: C_14  and  C_35
REMARK    2  A    between atoms: C_17  and  O_30
REMARK    3  A    between atoms: C_19  and  O_32
REMARK    4  A    between atoms: C_35  and  O_36
REMARK                            x       y       z     vdW  Elec       q    Type
REMARK                         _______ _______ _______ _____ _____    ______ ____
ROOT
ATOM      1  C   UNL     1     -63.313 -53.329 -16.527  0.00  0.00    +0.000 C 
ATOM      2  C   UNL     1     -64.111 -54.461 -15.749  0.00  0.00    +0.000 C 
ATOM      3  C   UNL     1     -63.440 -55.688 -15.124  0.00  0.00    +0.000 C 
ATOM      4  C   UNL     1     -64.125 -52.801 -17.869  0.00  0.00    +0.000 C 
ATOM      5  C   UNL     1     -62.194 -56.242 -15.823  0.00  0.00    +0.000 C 
ATOM      6  C   UNL     1     -62.029 -53.942 -16.885  0.00  0.00    +0.000 C 
ATOM      7  C   UNL     1     -61.462 -55.290 -16.582  0.00  0.00    +0.000 C 
ATOM      8  C   UNL     1     -65.678 -52.450 -17.546  0.00  0.00    +0.000 C 
ATOM      9  C   UNL     1     -61.906 -57.736 -15.795  0.00  0.00    +0.000 C 
ATOM     10  C   UNL     1     -66.402 -51.265 -18.057  0.00  0.00    +0.000 C 
ATOM     11  C   UNL     1     -65.524 -54.239 -15.772  0.00  0.00    +0.000 C 
ATOM     12  C   UNL     1     -64.366 -56.809 -15.117  0.00  0.00    +0.000 C 
ATOM     13  C   UNL     1     -63.592 -51.540 -18.418  0.00  0.00    +0.000 C 
ATOM     14  C   UNL     1     -65.656 -49.833 -18.401  0.00  0.00    +0.000 C 
ATOM     15  C   UNL     1     -63.077 -52.153 -15.495  0.00  0.00    +0.000 C 
ATOM     16  C   UNL     1     -64.275 -50.219 -18.688  0.00  0.00    +0.000 C 
ATOM     17  C   UNL     1     -63.059 -58.708 -15.438  0.00  0.00    +0.000 C 
ATOM     18  C   UNL     1     -63.040 -55.314 -13.676  0.00  0.00    +0.000 C 
ATOM     19  C   UNL     1     -64.372 -58.194 -15.235  0.00  0.00    +0.000 C 
ATOM     20  C   UNL     1     -66.210 -53.232 -16.650  0.00  0.00    +0.000 C 
ATOM     21  C   UNL     1     -64.176 -53.905 -19.010  0.00  0.00    +0.000 C 
ATOM     22  C   UNL     1     -67.660 -51.481 -18.770  0.00  0.00    +0.000 C 
ATOM     23  C   UNL     1     -66.430 -49.290 -19.548  0.00  0.00    +0.000 C 
ATOM     24  C   UNL     1     -68.564 -50.960 -19.864  0.00  0.00    +0.000 C 
ATOM     25  C   UNL     1     -61.459 -58.183 -17.231  0.00  0.00    +0.000 C 
ATOM     26  C   UNL     1     -60.738 -58.016 -14.807  0.00  0.00    +0.000 C 
ATOM     27  C   UNL     1     -67.748 -49.755 -20.219  0.00  0.00    +0.000 C 
ATOM     28  C   UNL     1     -69.949 -50.575 -19.314  0.00  0.00    +0.000 C 
ATOM     29  C   UNL     1     -68.652 -51.957 -21.034  0.00  0.00    +0.000 C 
ENDROOT
BRANCH  17  30
ATOM     30  O   UNL     1     -62.889 -60.081 -15.274  0.00  0.00    +0.000 OA
ATOM     31  H   UNL     1     -63.009 -60.555 -16.123  0.00  0.00    +0.000 HD
ENDBRANCH  17  30
BRANCH  19  32
ATOM     32  O   UNL     1     -65.363 -58.988 -14.741  0.00  0.00    +0.000 OA
ATOM     33  H   UNL     1     -65.921 -58.499 -14.106  0.00  0.00    +0.000 HD
ENDBRANCH  19  32
BRANCH  14  35
ATOM     34  O   UNL     1     -65.084 -48.956 -16.170  0.00  0.00    +0.000 OA
ATOM     35  C   UNL     1     -65.792 -48.931 -17.168  0.00  0.00    +0.000 C 
BRANCH  35  36
ATOM     36  O   UNL     1     -66.851 -48.092 -17.208  0.00  0.00    +0.000 OA
ATOM     37  H   UNL     1     -67.591 -48.632 -17.562  0.00  0.00    +0.000 HD
ENDBRANCH  35  36
ENDBRANCH  14  35
TORSDOF 4
ENDMDL
MODEL 3
REMARK VINA RESULT:      -6.3      1.592      8.275
REMARK  Name = 73659_MaslinicAcid.pdbqt.pdb
REMARK  4 active torsions:
REMARK  status: ('A' for Active; 'I' for Inactive)
REMARK    1  A    between atoms: C_14  and  C_35
REMARK    2  A    between atoms: C_17  and  O_30
REMARK    3  A    between atoms: C_19  and  O_32
REMARK    4  A    between atoms: C_35  and  O_36
REMARK                            x       y       z     vdW  Elec       q    Type
REMARK                         _______ _______ _______ _____ _____    ______ ____
ROOT
ATOM      1  C   UNL     1     -66.921 -60.151 -76.893  0.00  0.00    +0.000 C 
ATOM      2  C   UNL     1     -65.532 -59.990 -77.647  0.00  0.00    +0.000 C 
ATOM      3  C   UNL     1     -65.416 -59.675 -79.142  0.00  0.00    +0.000 C 
ATOM      4  C   UNL     1     -66.895 -61.386 -75.791  0.00  0.00    +0.000 C 
ATOM      5  C   UNL     1     -66.510 -60.225 -80.065  0.00  0.00    +0.000 C 
ATOM      6  C   UNL     1     -67.906 -60.399 -77.951  0.00  0.00    +0.000 C 
ATOM      7  C   UNL     1     -67.765 -60.444 -79.437  0.00  0.00    +0.000 C 
ATOM      8  C   UNL     1     -65.591 -61.317 -74.825  0.00  0.00    +0.000 C 
ATOM      9  C   UNL     1     -66.169 -60.633 -81.490  0.00  0.00    +0.000 C 
ATOM     10  C   UNL     1     -65.606 -61.551 -73.364  0.00  0.00    +0.000 C 
ATOM     11  C   UNL     1     -64.417 -60.250 -76.789  0.00  0.00    +0.000 C 
ATOM     12  C   UNL     1     -64.189 -60.246 -79.674  0.00  0.00    +0.000 C 
ATOM     13  C   UNL     1     -68.028 -61.353 -74.847  0.00  0.00    +0.000 C 
ATOM     14  C   UNL     1     -66.916 -61.226 -72.413  0.00  0.00    +0.000 C 
ATOM     15  C   UNL     1     -67.220 -58.761 -76.197  0.00  0.00    +0.000 C 
ATOM     16  C   UNL     1     -68.048 -61.312 -73.336  0.00  0.00    +0.000 C 
ATOM     17  C   UNL     1     -64.684 -60.882 -81.857  0.00  0.00    +0.000 C 
ATOM     18  C   UNL     1     -65.401 -58.136 -79.295  0.00  0.00    +0.000 C 
ATOM     19  C   UNL     1     -63.689 -60.816 -80.840  0.00  0.00    +0.000 C 
ATOM     20  C   UNL     1     -64.524 -60.872 -75.426  0.00  0.00    +0.000 C 
ATOM     21  C   UNL     1     -66.820 -62.810 -76.490  0.00  0.00    +0.000 C 
ATOM     22  C   UNL     1     -64.694 -62.555 -72.818  0.00  0.00    +0.000 C 
ATOM     23  C   UNL     1     -66.861 -62.269 -71.354  0.00  0.00    +0.000 C 
ATOM     24  C   UNL     1     -64.500 -63.585 -71.729  0.00  0.00    +0.000 C 
ATOM     25  C   UNL     1     -66.875 -61.999 -81.799  0.00  0.00    +0.000 C 
ATOM     26  C   UNL     1     -66.718 -59.562 -82.476  0.00  0.00    +0.000 C 
ATOM     27  C   UNL     1     -65.786 -63.330 -71.003  0.00  0.00    +0.000 C 
ATOM     28  C   UNL     1     -63.274 -63.259 -70.857  0.00  0.00    +0.000 C 
ATOM     29  C   UNL     1     -64.445 -65.009 -72.313  0.00  0.00    +0.000 C 
ENDROOT
BRANCH  17  30
ATOM     30  O   UNL     1     -64.243 -61.151 -83.151  0.00  0.00    +0.000 OA
ATOM     31  H   UNL     1     -64.576 -62.018 -83.464  0.00  0.00    +0.000 HD
ENDBRANCH  17  30
BRANCH  19  32
ATOM     32  O   UNL     1     -62.365 -60.846 -81.156  0.00  0.00    +0.000 OA
ATOM     33  H   UNL     1     -62.192 -60.365 -81.988  0.00  0.00    +0.000 HD
ENDBRANCH  19  32
BRANCH  14  35
ATOM     34  O   UNL     1     -66.974 -58.763 -72.369  0.00  0.00    +0.000 OA
ATOM     35  C   UNL     1     -66.721 -59.826 -71.818  0.00  0.00    +0.000 C 
BRANCH  35  36
ATOM     36  O   UNL     1     -66.151 -59.818 -70.592  0.00  0.00    +0.000 OA
ATOM     37  H   UNL     1     -65.289 -59.363 -70.715  0.00  0.00    +0.000 HD
ENDBRANCH  35  36
ENDBRANCH  14  35
TORSDOF 4
ENDMDL
MODEL 4
REMARK VINA RESULT:      -6.3     42.670     48.759
REMARK  Name = 73659_MaslinicAcid.pdbqt.pdb
REMARK  4 active torsions:
REMARK  status: ('A' for Active; 'I' for Inactive)
REMARK    1  A    between atoms: C_14  and  C_35
REMARK    2  A    between atoms: C_17  and  O_30
REMARK    3  A    between atoms: C_19  and  O_32
REMARK    4  A    between atoms: C_35  and  O_36
REMARK                            x       y       z     vdW  Elec       q    Type
REMARK                         _______ _______ _______ _____ _____    ______ ____
ROOT
ATOM      1  C   UNL     1     -73.204 -55.856 -29.278  0.00  0.00    +0.000 C 
ATOM      2  C   UNL     1     -71.662 -55.978 -29.642  0.00  0.00    +0.000 C 
ATOM      3  C   UNL     1     -71.094 -55.651 -31.027  0.00  0.00    +0.000 C 
ATOM      4  C   UNL     1     -73.719 -57.099 -28.314  0.00  0.00    +0.000 C 
ATOM      5  C   UNL     1     -71.993 -55.923 -32.239  0.00  0.00    +0.000 C 
ATOM      6  C   UNL     1     -73.903 -55.853 -30.567  0.00  0.00    +0.000 C 
ATOM      7  C   UNL     1     -73.387 -55.882 -31.968  0.00  0.00    +0.000 C 
ATOM      8  C   UNL     1     -72.730 -57.343 -27.049  0.00  0.00    +0.000 C 
ATOM      9  C   UNL     1     -71.378 -56.351 -33.562  0.00  0.00    +0.000 C 
ATOM     10  C   UNL     1     -73.177 -57.613 -25.665  0.00  0.00    +0.000 C 
ATOM     11  C   UNL     1     -70.889 -56.498 -28.557  0.00  0.00    +0.000 C 
ATOM     12  C   UNL     1     -69.912 -56.458 -31.280  0.00  0.00    +0.000 C 
ATOM     13  C   UNL     1     -75.030 -56.850 -27.686  0.00  0.00    +0.000 C 
ATOM     14  C   UNL     1     -74.598 -57.039 -25.050  0.00  0.00    +0.000 C 
ATOM     15  C   UNL     1     -73.389 -54.456 -28.563  0.00  0.00    +0.000 C 
ATOM     16  C   UNL     1     -75.439 -56.851 -26.231  0.00  0.00    +0.000 C 
ATOM     17  C   UNL     1     -69.930 -56.906 -33.563  0.00  0.00    +0.000 C 
ATOM     18  C   UNL     1     -70.730 -54.148 -31.039  0.00  0.00    +0.000 C 
ATOM     19  C   UNL     1     -69.247 -57.088 -32.327  0.00  0.00    +0.000 C 
ATOM     20  C   UNL     1     -71.475 -57.123 -27.323  0.00  0.00    +0.000 C 
ATOM     21  C   UNL     1     -73.750 -58.484 -29.092  0.00  0.00    +0.000 C 
ATOM     22  C   UNL     1     -72.663 -58.806 -24.995  0.00  0.00    +0.000 C 
ATOM     23  C   UNL     1     -75.035 -58.101 -24.104  0.00  0.00    +0.000 C 
ATOM     24  C   UNL     1     -72.975 -59.886 -23.984  0.00  0.00    +0.000 C 
ATOM     25  C   UNL     1     -72.238 -57.522 -34.155  0.00  0.00    +0.000 C 
ATOM     26  C   UNL     1     -71.419 -55.158 -34.559  0.00  0.00    +0.000 C 
ATOM     27  C   UNL     1     -74.328 -59.380 -23.586  0.00  0.00    +0.000 C 
ATOM     28  C   UNL     1     -71.983 -59.860 -22.807  0.00  0.00    +0.000 C 
ATOM     29  C   UNL     1     -73.056 -61.270 -24.655  0.00  0.00    +0.000 C 
ENDROOT
BRANCH  17  30
ATOM     30  O   UNL     1     -69.227 -57.225 -34.723  0.00  0.00    +0.000 OA
ATOM     31  H   UNL     1     -68.380 -56.734 -34.768  0.00  0.00    +0.000 HD
ENDBRANCH  17  30
BRANCH  19  32
ATOM     32  O   UNL     1     -67.921 -57.395 -32.301  0.00  0.00    +0.000 OA
ATOM     33  H   UNL     1     -67.783 -58.344 -32.112  0.00  0.00    +0.000 HD
ENDBRANCH  19  32
BRANCH  14  35
ATOM     34  O   UNL     1     -74.490 -54.600 -24.722  0.00  0.00    +0.000 OA
ATOM     35  C   UNL     1     -74.289 -55.734 -24.308  0.00  0.00    +0.000 C 
BRANCH  35  36
ATOM     36  O   UNL     1     -73.675 -55.905 -23.115  0.00  0.00    +0.000 OA
ATOM     37  H   UNL     1     -73.144 -55.089 -22.982  0.00  0.00    +0.000 HD
ENDBRANCH  35  36
ENDBRANCH  14  35
TORSDOF 4
ENDMDL
MODEL 5
REMARK VINA RESULT:      -6.1     29.540     34.786
REMARK  Name = 73659_MaslinicAcid.pdbqt.pdb
REMARK  4 active torsions:
REMARK  status: ('A' for Active; 'I' for Inactive)
REMARK    1  A    between atoms: C_14  and  C_35
REMARK    2  A    between atoms: C_17  and  O_30
REMARK    3  A    between atoms: C_19  and  O_32
REMARK    4  A    between atoms: C_35  and  O_36
REMARK                            x       y       z     vdW  Elec       q    Type
REMARK                         _______ _______ _______ _____ _____    ______ ____
ROOT
ATOM      1  C   UNL     1     -37.128 -65.808 -95.536  0.00  0.00    +0.000 C 
ATOM      2  C   UNL     1     -37.927 -66.968 -96.270  0.00  0.00    +0.000 C 
ATOM      3  C   UNL     1     -37.347 -67.795 -97.422  0.00  0.00    +0.000 C 
ATOM      4  C   UNL     1     -38.089 -64.507 -95.190  0.00  0.00    +0.000 C 
ATOM      5  C   UNL     1     -36.359 -67.096 -98.362  0.00  0.00    +0.000 C 
ATOM      6  C   UNL     1     -36.047 -65.445 -96.459  0.00  0.00    +0.000 C 
ATOM      7  C   UNL     1     -35.648 -66.011 -97.782  0.00  0.00    +0.000 C 
ATOM      8  C   UNL     1     -39.479 -64.947 -94.472  0.00  0.00    +0.000 C 
ATOM      9  C   UNL     1     -36.306 -67.480 -99.833  0.00  0.00    +0.000 C 
ATOM     10  C   UNL     1     -40.094 -64.248 -93.322  0.00  0.00    +0.000 C 
ATOM     11  C   UNL     1     -39.267 -67.093 -95.784  0.00  0.00    +0.000 C 
ATOM     12  C   UNL     1     -38.416 -68.236 -98.302  0.00  0.00    +0.000 C 
ATOM     13  C   UNL     1     -37.483 -63.569 -94.227  0.00  0.00    +0.000 C 
ATOM     14  C   UNL     1     -39.216 -63.429 -92.189  0.00  0.00    +0.000 C 
ATOM     15  C   UNL     1     -36.519 -66.443 -94.220  0.00  0.00    +0.000 C 
ATOM     16  C   UNL     1     -37.992 -63.058 -92.899  0.00  0.00    +0.000 C 
ATOM     17  C   UNL     1     -37.506 -68.249-100.444  0.00  0.00    +0.000 C 
ATOM     18  C   UNL     1     -36.624 -69.015 -96.803  0.00  0.00    +0.000 C 
ATOM     19  C   UNL     1     -38.660 -68.495 -99.647  0.00  0.00    +0.000 C 
ATOM     20  C   UNL     1     -39.944 -66.087 -94.898  0.00  0.00    +0.000 C 
ATOM     21  C   UNL     1     -38.529 -63.723 -96.501  0.00  0.00    +0.000 C 
ATOM     22  C   UNL     1     -41.484 -63.810 -93.446  0.00  0.00    +0.000 C 
ATOM     23  C   UNL     1     -40.102 -62.304 -91.791  0.00  0.00    +0.000 C 
ATOM     24  C   UNL     1     -42.490 -62.761 -93.030  0.00  0.00    +0.000 C 
ATOM     25  C   UNL     1     -36.217 -66.167-100.687  0.00  0.00    +0.000 C 
ATOM     26  C   UNL     1     -35.028 -68.326-100.098  0.00  0.00    +0.000 C 
ATOM     27  C   UNL     1     -41.580 -61.981 -92.130  0.00  0.00    +0.000 C 
ATOM     28  C   UNL     1     -43.667 -63.383 -92.258  0.00  0.00    +0.000 C 
ATOM     29  C   UNL     1     -42.953 -61.925 -94.238  0.00  0.00    +0.000 C 
ENDROOT
BRANCH  17  30
ATOM     30  O   UNL     1     -37.521 -68.747-101.744  0.00  0.00    +0.000 OA
ATOM     31  H   UNL     1     -38.439 -68.880-102.060  0.00  0.00    +0.000 HD
ENDBRANCH  17  30
BRANCH  19  32
ATOM     32  O   UNL     1     -39.648 -69.322-100.088  0.00  0.00    +0.000 OA
ATOM     33  H   UNL     1     -40.529 -68.976 -99.845  0.00  0.00    +0.000 HD
ENDBRANCH  19  32
BRANCH  14  35
ATOM     34  O   UNL     1     -38.582 -65.540 -91.087  0.00  0.00    +0.000 OA
ATOM     35  C   UNL     1     -38.972 -64.382 -91.013  0.00  0.00    +0.000 C 
BRANCH  35  36
ATOM     36  O   UNL     1     -39.297 -63.868 -89.805  0.00  0.00    +0.000 OA
ATOM     37  H   UNL     1     -38.613 -64.211 -89.190  0.00  0.00    +0.000 HD
ENDBRANCH  35  36
ENDBRANCH  14  35
TORSDOF 4
ENDMDL
MODEL 6
REMARK VINA RESULT:      -6.0     51.783     56.889
REMARK  Name = 73659_MaslinicAcid.pdbqt.pdb
REMARK  4 active torsions:
REMARK  status: ('A' for Active; 'I' for Inactive)
REMARK    1  A    between atoms: C_14  and  C_35
REMARK    2  A    between atoms: C_17  and  O_30
REMARK    3  A    between atoms: C_19  and  O_32
REMARK    4  A    between atoms: C_35  and  O_36
REMARK                            x       y       z     vdW  Elec       q    Type
REMARK                         _______ _______ _______ _____ _____    ______ ____
ROOT
ATOM      1  C   UNL     1     -62.344 -51.964 -19.341  0.00  0.00    +0.000 C 
ATOM      2  C   UNL     1     -63.299 -53.143 -18.871  0.00  0.00    +0.000 C 
ATOM      3  C   UNL     1     -63.974 -53.186 -17.497  0.00  0.00    +0.000 C 
ATOM      4  C   UNL     1     -61.040 -52.517 -20.197  0.00  0.00    +0.000 C 
ATOM      5  C   UNL     1     -63.216 -52.559 -16.321  0.00  0.00    +0.000 C 
ATOM      6  C   UNL     1     -61.927 -51.293 -18.104  0.00  0.00    +0.000 C 
ATOM      7  C   UNL     1     -62.303 -51.531 -16.679  0.00  0.00    +0.000 C 
ATOM      8  C   UNL     1     -61.473 -53.560 -21.365  0.00  0.00    +0.000 C 
ATOM      9  C   UNL     1     -63.360 -53.144 -14.924  0.00  0.00    +0.000 C 
ATOM     10  C   UNL     1     -60.921 -53.568 -22.738  0.00  0.00    +0.000 C 
ATOM     11  C   UNL     1     -63.389 -54.187 -19.846  0.00  0.00    +0.000 C 
ATOM     12  C   UNL     1     -64.176 -54.566 -17.087  0.00  0.00    +0.000 C 
ATOM     13  C   UNL     1     -60.324 -51.455 -20.927  0.00  0.00    +0.000 C 
ATOM     14  C   UNL     1     -60.372 -52.209 -23.497  0.00  0.00    +0.000 C 
ATOM     15  C   UNL     1     -63.232 -50.984 -20.210  0.00  0.00    +0.000 C 
ATOM     16  C   UNL     1     -59.994 -51.323 -22.396  0.00  0.00    +0.000 C 
ATOM     17  C   UNL     1     -63.917 -54.582 -14.774  0.00  0.00    +0.000 C 
ATOM     18  C   UNL     1     -65.334 -52.459 -17.621  0.00  0.00    +0.000 C 
ATOM     19  C   UNL     1     -64.193 -55.353 -15.940  0.00  0.00    +0.000 C 
ATOM     20  C   UNL     1     -62.486 -54.311 -21.040  0.00  0.00    +0.000 C 
ATOM     21  C   UNL     1     -60.020 -53.320 -19.280  0.00  0.00    +0.000 C 
ATOM     22  C   UNL     1     -60.354 -54.817 -23.244  0.00  0.00    +0.000 C 
ATOM     23  C   UNL     1     -59.256 -52.698 -24.350  0.00  0.00    +0.000 C 
ATOM     24  C   UNL     1     -59.306 -55.419 -24.153  0.00  0.00    +0.000 C 
ATOM     25  C   UNL     1     -61.939 -53.213 -14.264  0.00  0.00    +0.000 C 
ATOM     26  C   UNL     1     -64.256 -52.206 -14.064  0.00  0.00    +0.000 C 
ATOM     27  C   UNL     1     -58.760 -54.128 -24.684  0.00  0.00    +0.000 C 
ATOM     28  C   UNL     1     -59.944 -56.273 -25.262  0.00  0.00    +0.000 C 
ATOM     29  C   UNL     1     -58.250 -56.196 -23.345  0.00  0.00    +0.000 C 
ENDROOT
BRANCH  17  30
ATOM     30  O   UNL     1     -64.195 -55.178 -13.546  0.00  0.00    +0.000 OA
ATOM     31  H   UNL     1     -63.450 -55.742 -13.251  0.00  0.00    +0.000 HD
ENDBRANCH  17  30
BRANCH  19  32
ATOM     32  O   UNL     1     -64.852 -56.541 -15.851  0.00  0.00    +0.000 OA
ATOM     33  H   UNL     1     -65.511 -56.524 -15.131  0.00  0.00    +0.000 HD
ENDBRANCH  19  32
BRANCH  14  35
ATOM     34  O   UNL     1     -61.726 -50.484 -24.622  0.00  0.00    +0.000 OA
ATOM     35  C   UNL     1     -61.520 -51.660 -24.353  0.00  0.00    +0.000 C 
BRANCH  35  36
ATOM     36  O   UNL     1     -62.398 -52.599 -24.772  0.00  0.00    +0.000 OA
ATOM     37  H   UNL     1     -63.283 -52.183 -24.672  0.00  0.00    +0.000 HD
ENDBRANCH  35  36
ENDBRANCH  14  35
TORSDOF 4
ENDMDL
MODEL 7
REMARK VINA RESULT:      -6.0      1.700      8.362
REMARK  Name = 73659_MaslinicAcid.pdbqt.pdb
REMARK  4 active torsions:
REMARK  status: ('A' for Active; 'I' for Inactive)
REMARK    1  A    between atoms: C_14  and  C_35
REMARK    2  A    between atoms: C_17  and  O_30
REMARK    3  A    between atoms: C_19  and  O_32
REMARK    4  A    between atoms: C_35  and  O_36
REMARK                            x       y       z     vdW  Elec       q    Type
REMARK                         _______ _______ _______ _____ _____    ______ ____
ROOT
ATOM      1  C   UNL     1     -67.309 -60.554 -76.346  0.00  0.00    +0.000 C 
ATOM      2  C   UNL     1     -65.754 -60.431 -76.649  0.00  0.00    +0.000 C 
ATOM      3  C   UNL     1     -65.169 -60.413 -78.065  0.00  0.00    +0.000 C 
ATOM      4  C   UNL     1     -67.618 -61.536 -75.050  0.00  0.00    +0.000 C 
ATOM      5  C   UNL     1     -65.900 -61.228 -79.138  0.00  0.00    +0.000 C 
ATOM      6  C   UNL     1     -67.897 -61.092 -77.578  0.00  0.00    +0.000 C 
ATOM      7  C   UNL     1     -67.287 -61.422 -78.899  0.00  0.00    +0.000 C 
ATOM      8  C   UNL     1     -66.694 -61.163 -73.767  0.00  0.00    +0.000 C 
ATOM      9  C   UNL     1     -65.113 -61.883 -80.263  0.00  0.00    +0.000 C 
ATOM     10  C   UNL     1     -67.174 -61.100 -72.369  0.00  0.00    +0.000 C 
ATOM     11  C   UNL     1     -64.970 -60.417 -75.453  0.00  0.00    +0.000 C 
ATOM     12  C   UNL     1     -63.828 -60.973 -78.053  0.00  0.00    +0.000 C 
ATOM     13  C   UNL     1     -68.994 -61.410 -74.534  0.00  0.00    +0.000 C 
ATOM     14  C   UNL     1     -68.724 -60.703 -71.965  0.00  0.00    +0.000 C 
ATOM     15  C   UNL     1     -67.838 -59.084 -76.097  0.00  0.00    +0.000 C 
ATOM     16  C   UNL     1     -69.498 -61.069 -73.151  0.00  0.00    +0.000 C 
ATOM     17  C   UNL     1     -63.585 -62.074 -80.089  0.00  0.00    +0.000 C 
ATOM     18  C   UNL     1     -65.131 -58.941 -78.537  0.00  0.00    +0.000 C 
ATOM     19  C   UNL     1     -62.970 -61.721 -78.853  0.00  0.00    +0.000 C 
ATOM     20  C   UNL     1     -65.497 -60.760 -74.089  0.00  0.00    +0.000 C 
ATOM     21  C   UNL     1     -67.299 -63.060 -75.365  0.00  0.00    +0.000 C 
ATOM     22  C   UNL     1     -66.468 -61.893 -71.362  0.00  0.00    +0.000 C 
ATOM     23  C   UNL     1     -68.995 -61.504 -70.741  0.00  0.00    +0.000 C 
ATOM     24  C   UNL     1     -66.617 -62.663 -70.070  0.00  0.00    +0.000 C 
ATOM     25  C   UNL     1     -65.660 -63.339 -80.472  0.00  0.00    +0.000 C 
ATOM     26  C   UNL     1     -65.334 -61.082 -81.579  0.00  0.00    +0.000 C 
ATOM     27  C   UNL     1     -68.072 -62.378 -69.853  0.00  0.00    +0.000 C 
ATOM     28  C   UNL     1     -65.742 -62.066 -68.954  0.00  0.00    +0.000 C 
ATOM     29  C   UNL     1     -66.354 -64.165 -70.284  0.00  0.00    +0.000 C 
ENDROOT
BRANCH  17  30
ATOM     30  O   UNL     1     -62.748 -62.558 -81.091  0.00  0.00    +0.000 OA
ATOM     31  H   UNL     1     -63.124 -63.362 -81.508  0.00  0.00    +0.000 HD
ENDBRANCH  17  30
BRANCH  19  32
ATOM     32  O   UNL     1     -61.614 -61.701 -78.729  0.00  0.00    +0.000 OA
ATOM     33  H   UNL     1     -61.222 -60.989 -79.270  0.00  0.00    +0.000 HD
ENDBRANCH  19  32
BRANCH  14  35
ATOM     34  O   UNL     1     -68.157 -58.325 -72.270  0.00  0.00    +0.000 OA
ATOM     35  C   UNL     1     -68.754 -59.201 -71.658  0.00  0.00    +0.000 C 
BRANCH  35  36
ATOM     36  O   UNL     1     -69.467 -58.873 -70.558  0.00  0.00    +0.000 OA
ATOM     37  H   UNL     1     -70.130 -58.218 -70.870  0.00  0.00    +0.000 HD
ENDBRANCH  35  36
ENDBRANCH  14  35
TORSDOF 4
ENDMDL
MODEL 8
REMARK VINA RESULT:      -6.0     35.039     40.190
REMARK  Name = 73659_MaslinicAcid.pdbqt.pdb
REMARK  4 active torsions:
REMARK  status: ('A' for Active; 'I' for Inactive)
REMARK    1  A    between atoms: C_14  and  C_35
REMARK    2  A    between atoms: C_17  and  O_30
REMARK    3  A    between atoms: C_19  and  O_32
REMARK    4  A    between atoms: C_35  and  O_36
REMARK                            x       y       z     vdW  Elec       q    Type
REMARK                         _______ _______ _______ _____ _____    ______ ____
ROOT
ATOM      1  C   UNL     1     -70.129 -58.737 -35.748  0.00  0.00    +0.000 C 
ATOM      2  C   UNL     1     -69.438 -57.895 -34.592  0.00  0.00    +0.000 C 
ATOM      3  C   UNL     1     -69.864 -57.972 -33.123  0.00  0.00    +0.000 C 
ATOM      4  C   UNL     1     -70.312 -57.858 -37.139  0.00  0.00    +0.000 C 
ATOM      5  C   UNL     1     -71.345 -58.237 -32.832  0.00  0.00    +0.000 C 
ATOM      6  C   UNL     1     -71.426 -59.148 -35.200  0.00  0.00    +0.000 C 
ATOM      7  C   UNL     1     -72.037 -58.941 -33.853  0.00  0.00    +0.000 C 
ATOM      8  C   UNL     1     -68.943 -57.097 -37.567  0.00  0.00    +0.000 C 
ATOM      9  C   UNL     1     -71.999 -57.629 -31.600  0.00  0.00    +0.000 C 
ATOM     10  C   UNL     1     -68.418 -57.011 -38.947  0.00  0.00    +0.000 C 
ATOM     11  C   UNL     1     -68.434 -57.008 -35.095  0.00  0.00    +0.000 C 
ATOM     12  C   UNL     1     -69.599 -56.703 -32.464  0.00  0.00    +0.000 C 
ATOM     13  C   UNL     1     -70.632 -58.685 -38.317  0.00  0.00    +0.000 C 
ATOM     14  C   UNL     1     -68.687 -58.174 -40.087  0.00  0.00    +0.000 C 
ATOM     15  C   UNL     1     -69.219 -60.010 -35.985  0.00  0.00    +0.000 C 
ATOM     16  C   UNL     1     -69.930 -58.811 -39.650  0.00  0.00    +0.000 C 
ATOM     17  C   UNL     1     -71.299 -56.438 -30.898  0.00  0.00    +0.000 C 
ATOM     18  C   UNL     1     -69.044 -59.102 -32.457  0.00  0.00    +0.000 C 
ATOM     19  C   UNL     1     -70.119 -55.883 -31.468  0.00  0.00    +0.000 C 
ATOM     20  C   UNL     1     -68.238 -56.688 -36.549  0.00  0.00    +0.000 C 
ATOM     21  C   UNL     1     -71.396 -56.707 -36.980  0.00  0.00    +0.000 C 
ATOM     22  C   UNL     1     -68.121 -55.687 -39.490  0.00  0.00    +0.000 C 
ATOM     23  C   UNL     1     -68.761 -57.417 -41.365  0.00  0.00    +0.000 C 
ATOM     24  C   UNL     1     -68.078 -54.848 -40.747  0.00  0.00    +0.000 C 
ATOM     25  C   UNL     1     -73.403 -57.061 -32.011  0.00  0.00    +0.000 C 
ATOM     26  C   UNL     1     -72.212 -58.739 -30.531  0.00  0.00    +0.000 C 
ATOM     27  C   UNL     1     -68.475 -55.931 -41.704  0.00  0.00    +0.000 C 
ATOM     28  C   UNL     1     -66.658 -54.325 -41.029  0.00  0.00    +0.000 C 
ATOM     29  C   UNL     1     -69.122 -53.717 -40.697  0.00  0.00    +0.000 C 
ENDROOT
BRANCH  17  30
ATOM     30  O   UNL     1     -71.746 -55.875 -29.704  0.00  0.00    +0.000 OA
ATOM     31  H   UNL     1     -72.599 -56.269 -29.426  0.00  0.00    +0.000 HD
ENDBRANCH  17  30
BRANCH  19  32
ATOM     32  O   UNL     1     -69.379 -54.964 -30.786  0.00  0.00    +0.000 OA
ATOM     33  H   UNL     1     -68.726 -54.534 -31.372  0.00  0.00    +0.000 HD
ENDBRANCH  19  32
BRANCH  14  35
ATOM     34  O   UNL     1     -67.252 -59.993 -39.249  0.00  0.00    +0.000 OA
ATOM     35  C   UNL     1     -67.482 -59.122 -40.077  0.00  0.00    +0.000 C 
BRANCH  35  36
ATOM     36  O   UNL     1     -66.583 -58.887 -41.060  0.00  0.00    +0.000 OA
ATOM     37  H   UNL     1     -66.006 -59.682 -41.072  0.00  0.00    +0.000 HD
ENDBRANCH  35  36
ENDBRANCH  14  35
TORSDOF 4
ENDMDL
MODEL 9
REMARK VINA RESULT:      -5.9      2.148      3.360
REMARK  Name = 73659_MaslinicAcid.pdbqt.pdb
REMARK  4 active torsions:
REMARK  status: ('A' for Active; 'I' for Inactive)
REMARK    1  A    between atoms: C_14  and  C_35
REMARK    2  A    between atoms: C_17  and  O_30
REMARK    3  A    between atoms: C_19  and  O_32
REMARK    4  A    between atoms: C_35  and  O_36
REMARK                            x       y       z     vdW  Elec       q    Type
REMARK                         _______ _______ _______ _____ _____    ______ ____
ROOT
ATOM      1  C   UNL     1     -66.081 -61.742 -73.341  0.00  0.00    +0.000 C 
ATOM      2  C   UNL     1     -66.773 -60.660 -72.408  0.00  0.00    +0.000 C 
ATOM      3  C   UNL     1     -67.199 -60.939 -70.963  0.00  0.00    +0.000 C 
ATOM      4  C   UNL     1     -66.636 -61.674 -74.899  0.00  0.00    +0.000 C 
ATOM      5  C   UNL     1     -67.657 -62.363 -70.627  0.00  0.00    +0.000 C 
ATOM      6  C   UNL     1     -66.387 -63.036 -72.720  0.00  0.00    +0.000 C 
ATOM      7  C   UNL     1     -67.115 -63.377 -71.462  0.00  0.00    +0.000 C 
ATOM      8  C   UNL     1     -66.633 -60.158 -75.483  0.00  0.00    +0.000 C 
ATOM      9  C   UNL     1     -68.731 -62.588 -69.574  0.00  0.00    +0.000 C 
ATOM     10  C   UNL     1     -66.193 -59.777 -76.843  0.00  0.00    +0.000 C 
ATOM     11  C   UNL     1     -67.020 -59.430 -73.097  0.00  0.00    +0.000 C 
ATOM     12  C   UNL     1     -68.343 -60.112 -70.615  0.00  0.00    +0.000 C 
ATOM     13  C   UNL     1     -65.794 -62.416 -75.855  0.00  0.00    +0.000 C 
ATOM     14  C   UNL     1     -65.041 -60.609 -77.684  0.00  0.00    +0.000 C 
ATOM     15  C   UNL     1     -64.523 -61.468 -73.271  0.00  0.00    +0.000 C 
ATOM     16  C   UNL     1     -65.102 -61.957 -77.118  0.00  0.00    +0.000 C 
ATOM     17  C   UNL     1     -69.631 -61.395 -69.163  0.00  0.00    +0.000 C 
ATOM     18  C   UNL     1     -65.997 -60.604 -70.049  0.00  0.00    +0.000 C 
ATOM     19  C   UNL     1     -69.497 -60.149 -69.840  0.00  0.00    +0.000 C 
ATOM     20  C   UNL     1     -66.910 -59.256 -74.585  0.00  0.00    +0.000 C 
ATOM     21  C   UNL     1     -68.143 -62.163 -75.018  0.00  0.00    +0.000 C 
ATOM     22  C   UNL     1     -67.117 -59.009 -77.676  0.00  0.00    +0.000 C 
ATOM     23  C   UNL     1     -65.468 -60.481 -79.103  0.00  0.00    +0.000 C 
ATOM     24  C   UNL     1     -67.569 -58.741 -79.094  0.00  0.00    +0.000 C 
ATOM     25  C   UNL     1     -69.740 -63.662 -70.113  0.00  0.00    +0.000 C 
ATOM     26  C   UNL     1     -68.072 -63.141 -68.278  0.00  0.00    +0.000 C 
ATOM     27  C   UNL     1     -66.582 -59.639 -79.775  0.00  0.00    +0.000 C 
ATOM     28  C   UNL     1     -67.366 -57.265 -79.480  0.00  0.00    +0.000 C 
ATOM     29  C   UNL     1     -69.018 -59.213 -79.314  0.00  0.00    +0.000 C 
ENDROOT
BRANCH  17  30
ATOM     30  O   UNL     1     -70.570 -61.454 -68.135  0.00  0.00    +0.000 OA
ATOM     31  H   UNL     1     -71.310 -60.834 -68.297  0.00  0.00    +0.000 HD
ENDBRANCH  17  30
BRANCH  19  32
ATOM     32  O   UNL     1     -70.136 -59.036 -69.385  0.00  0.00    +0.000 OA
ATOM     33  H   UNL     1     -71.093 -59.077 -69.576  0.00  0.00    +0.000 HD
ENDBRANCH  19  32
BRANCH  14  35
ATOM     34  O   UNL     1     -62.959 -60.066 -76.483  0.00  0.00    +0.000 OA
ATOM     35  C   UNL     1     -63.697 -59.910 -77.447  0.00  0.00    +0.000 C 
BRANCH  35  36
ATOM     36  O   UNL     1     -63.374 -58.995 -78.388  0.00  0.00    +0.000 OA
ATOM     37  H   UNL     1     -62.810 -59.479 -79.031  0.00  0.00    +0.000 HD
ENDBRANCH  35  36
ENDBRANCH  14  35
TORSDOF 4
ENDMDL
