MODEL 1
REMARK VINA RESULT:      -4.3      0.000      0.000
REMARK  Name = 76617_Cardol.pdbqt.pdb
REMARK  10 active torsions:
REMARK  status: ('A' for Active; 'I' for Inactive)
REMARK    1  A    between atoms: C_1  and  C_2
REMARK    2  A    between atoms: C_3  and  C_4
REMARK    3  A    between atoms: C_5  and  C_6
REMARK    4  A    between atoms: C_7  and  C_8
REMARK    5  A    between atoms: C_8  and  C_9
REMARK    6  A    between atoms: C_10  and  C_11
REMARK    7  A    between atoms: C_14  and  C_15
REMARK    8  A    between atoms: C_15  and  C_16
REMARK    9  A    between atoms: C_19  and  O_24
REMARK   10  A    between atoms: C_20  and  O_22
REMARK                            x       y       z     vdW  Elec       q    Type
REMARK                         _______ _______ _______ _____ _____    ______ ____
ROOT
ATOM      1  C   UNL     1     -61.997 -57.064 -48.916  0.00  0.00    +0.000 C 
ATOM      2  C   UNL     1     -62.497 -57.030 -47.826  0.00  0.00    +0.000 C 
ENDROOT
BRANCH   1   3
ATOM      3  C   UNL     1     -61.359 -57.108 -50.308  0.00  0.00    +0.000 C 
ATOM      4  C   UNL     1     -60.720 -57.154 -51.699  0.00  0.00    +0.000 C 
BRANCH   4   5
ATOM      5  C   UNL     1     -60.082 -57.200 -53.091  0.00  0.00    +0.000 C 
ATOM      6  C   UNL     1     -59.444 -57.247 -54.482  0.00  0.00    +0.000 C 
BRANCH   6   7
ATOM      7  C   UNL     1     -58.807 -57.294 -55.875  0.00  0.00    +0.000 C 
ATOM      8  C   UNL     1     -58.169 -57.340 -57.266  0.00  0.00    +0.000 C 
BRANCH   8   9
ATOM      9  C   UNL     1     -57.532 -57.386 -58.658  0.00  0.00    +0.000 C 
BRANCH   9  10
ATOM     10  C   UNL     1     -56.894 -57.434 -60.050  0.00  0.00    +0.000 C 
ATOM     11  C   UNL     1     -56.255 -57.482 -61.440  0.00  0.00    +0.000 C 
BRANCH  11  12
ATOM     12  C   UNL     1     -55.616 -57.528 -62.832  0.00  0.00    +0.000 C 
ATOM     13  C   UNL     1     -54.977 -57.576 -64.223  0.00  0.00    +0.000 C 
ATOM     14  C   UNL     1     -54.339 -57.623 -65.615  0.00  0.00    +0.000 C 
ENDBRANCH  11  12
ENDBRANCH   9  10
ENDBRANCH   8   9
ENDBRANCH   6   7
ENDBRANCH   4   5
ENDBRANCH   1   3
BRANCH   2  15
ATOM     15  C   UNL     1     -63.135 -56.984 -46.434  0.00  0.00    +0.000 C 
BRANCH  15  16
ATOM     16  C   UNL     1     -63.729 -56.943 -45.140  0.00  0.00    +0.000 A 
ATOM     17  C   UNL     1     -65.116 -56.981 -45.011  0.00  0.00    +0.000 A 
ATOM     18  C   UNL     1     -62.919 -56.865 -44.008  0.00  0.00    +0.000 A 
ATOM     19  C   UNL     1     -63.509 -56.826 -42.747  0.00  0.00    +0.000 A 
ATOM     20  C   UNL     1     -65.686 -56.940 -43.741  0.00  0.00    +0.000 A 
ATOM     21  C   UNL     1     -64.892 -56.862 -42.601  0.00  0.00    +0.000 A 
BRANCH  20  22
ATOM     22  O   UNL     1     -67.042 -56.976 -43.588  0.00  0.00    +0.000 OA
ATOM     23  H   UNL     1     -67.338 -57.899 -43.680  0.00  0.00    +0.000 HD
ENDBRANCH  20  22
BRANCH  19  24
ATOM     24  O   UNL     1     -62.739 -56.749 -41.622  0.00  0.00    +0.000 OA
ATOM     25  H   UNL     1     -62.299 -55.881 -41.611  0.00  0.00    +0.000 HD
ENDBRANCH  19  24
ENDBRANCH  15  16
ENDBRANCH   2  15
TORSDOF 10
ENDMDL
MODEL 2
REMARK VINA RESULT:      -4.2     16.237     23.816
REMARK  Name = 76617_Cardol.pdbqt.pdb
REMARK  10 active torsions:
REMARK  status: ('A' for Active; 'I' for Inactive)
REMARK    1  A    between atoms: C_1  and  C_2
REMARK    2  A    between atoms: C_3  and  C_4
REMARK    3  A    between atoms: C_5  and  C_6
REMARK    4  A    between atoms: C_7  and  C_8
REMARK    5  A    between atoms: C_8  and  C_9
REMARK    6  A    between atoms: C_10  and  C_11
REMARK    7  A    between atoms: C_14  and  C_15
REMARK    8  A    between atoms: C_15  and  C_16
REMARK    9  A    between atoms: C_19  and  O_24
REMARK   10  A    between atoms: C_20  and  O_22
REMARK                            x       y       z     vdW  Elec       q    Type
REMARK                         _______ _______ _______ _____ _____    ______ ____
ROOT
ATOM      1  C   UNL     1     -72.451 -56.866 -27.530  0.00  0.00    +0.000 C 
ATOM      2  C   UNL     1     -72.898 -56.854 -26.417  0.00  0.00    +0.000 C 
ENDROOT
BRANCH   1   3
ATOM      3  C   UNL     1     -71.879 -56.881 -28.951  0.00  0.00    +0.000 C 
ATOM      4  C   UNL     1     -71.306 -56.894 -30.372  0.00  0.00    +0.000 C 
BRANCH   4   5
ATOM      5  C   UNL     1     -70.732 -56.908 -31.792  0.00  0.00    +0.000 C 
ATOM      6  C   UNL     1     -70.159 -56.920 -33.211  0.00  0.00    +0.000 C 
BRANCH   6   7
ATOM      7  C   UNL     1     -69.584 -56.933 -34.632  0.00  0.00    +0.000 C 
ATOM      8  C   UNL     1     -69.011 -56.947 -36.052  0.00  0.00    +0.000 C 
BRANCH   8   9
ATOM      9  C   UNL     1     -68.438 -56.960 -37.472  0.00  0.00    +0.000 C 
BRANCH   9  10
ATOM     10  C   UNL     1     -67.866 -56.972 -38.893  0.00  0.00    +0.000 C 
ATOM     11  C   UNL     1     -67.296 -56.985 -40.314  0.00  0.00    +0.000 C 
BRANCH  11  12
ATOM     12  C   UNL     1     -66.724 -56.998 -41.735  0.00  0.00    +0.000 C 
ATOM     13  C   UNL     1     -66.153 -57.011 -43.156  0.00  0.00    +0.000 C 
ATOM     14  C   UNL     1     -65.582 -57.024 -44.577  0.00  0.00    +0.000 C 
ENDBRANCH  11  12
ENDBRANCH   9  10
ENDBRANCH   8   9
ENDBRANCH   6   7
ENDBRANCH   4   5
ENDBRANCH   1   3
BRANCH   2  15
ATOM     15  C   UNL     1     -73.471 -56.841 -24.996  0.00  0.00    +0.000 C 
BRANCH  15  16
ATOM     16  C   UNL     1     -74.004 -56.829 -23.675  0.00  0.00    +0.000 A 
ATOM     17  C   UNL     1     -75.327 -57.206 -23.457  0.00  0.00    +0.000 A 
ATOM     18  C   UNL     1     -73.198 -56.440 -22.607  0.00  0.00    +0.000 A 
ATOM     19  C   UNL     1     -73.728 -56.432 -21.318  0.00  0.00    +0.000 A 
ATOM     20  C   UNL     1     -75.838 -57.192 -22.161  0.00  0.00    +0.000 A 
ATOM     21  C   UNL     1     -75.047 -56.806 -21.084  0.00  0.00    +0.000 A 
BRANCH  20  22
ATOM     22  O   UNL     1     -77.131 -57.557 -21.921  0.00  0.00    +0.000 OA
ATOM     23  H   UNL     1     -77.712 -56.822 -22.184  0.00  0.00    +0.000 HD
ENDBRANCH  20  22
BRANCH  19  24
ATOM     24  O   UNL     1     -72.960 -56.055 -20.254  0.00  0.00    +0.000 OA
ATOM     25  H   UNL     1     -72.089 -56.482 -20.338  0.00  0.00    +0.000 HD
ENDBRANCH  19  24
ENDBRANCH  15  16
ENDBRANCH   2  15
TORSDOF 10
ENDMDL
MODEL 3
REMARK VINA RESULT:      -4.1      6.796     11.691
REMARK  Name = 76617_Cardol.pdbqt.pdb
REMARK  10 active torsions:
REMARK  status: ('A' for Active; 'I' for Inactive)
REMARK    1  A    between atoms: C_1  and  C_2
REMARK    2  A    between atoms: C_3  and  C_4
REMARK    3  A    between atoms: C_5  and  C_6
REMARK    4  A    between atoms: C_7  and  C_8
REMARK    5  A    between atoms: C_8  and  C_9
REMARK    6  A    between atoms: C_10  and  C_11
REMARK    7  A    between atoms: C_14  and  C_15
REMARK    8  A    between atoms: C_15  and  C_16
REMARK    9  A    between atoms: C_19  and  O_24
REMARK   10  A    between atoms: C_20  and  O_22
REMARK                            x       y       z     vdW  Elec       q    Type
REMARK                         _______ _______ _______ _____ _____    ______ ____
ROOT
ATOM      1  C   UNL     1     -67.635 -57.068 -39.108  0.00  0.00    +0.000 C 
ATOM      2  C   UNL     1     -67.905 -57.090 -37.940  0.00  0.00    +0.000 C 
ENDROOT
BRANCH   1   3
ATOM      3  C   UNL     1     -67.290 -57.040 -40.600  0.00  0.00    +0.000 C 
ATOM      4  C   UNL     1     -66.945 -57.011 -42.093  0.00  0.00    +0.000 C 
BRANCH   4   5
ATOM      5  C   UNL     1     -66.599 -56.982 -43.584  0.00  0.00    +0.000 C 
ATOM      6  C   UNL     1     -66.253 -56.953 -45.076  0.00  0.00    +0.000 C 
BRANCH   6   7
ATOM      7  C   UNL     1     -65.908 -56.924 -46.568  0.00  0.00    +0.000 C 
ATOM      8  C   UNL     1     -65.564 -56.896 -48.060  0.00  0.00    +0.000 C 
BRANCH   8   9
ATOM      9  C   UNL     1     -65.219 -56.867 -49.552  0.00  0.00    +0.000 C 
BRANCH   9  10
ATOM     10  C   UNL     1     -64.875 -56.840 -51.044  0.00  0.00    +0.000 C 
ATOM     11  C   UNL     1     -64.533 -56.814 -52.537  0.00  0.00    +0.000 C 
BRANCH  11  12
ATOM     12  C   UNL     1     -64.189 -56.788 -54.029  0.00  0.00    +0.000 C 
ATOM     13  C   UNL     1     -63.845 -56.761 -55.521  0.00  0.00    +0.000 C 
ATOM     14  C   UNL     1     -63.501 -56.735 -57.014  0.00  0.00    +0.000 C 
ENDBRANCH  11  12
ENDBRANCH   9  10
ENDBRANCH   8   9
ENDBRANCH   6   7
ENDBRANCH   4   5
ENDBRANCH   1   3
BRANCH   2  15
ATOM     15  C   UNL     1     -68.249 -57.118 -36.447  0.00  0.00    +0.000 C 
BRANCH  15  16
ATOM     16  C   UNL     1     -68.569 -57.143 -35.059  0.00  0.00    +0.000 A 
ATOM     17  C   UNL     1     -67.715 -57.782 -34.161  0.00  0.00    +0.000 A 
ATOM     18  C   UNL     1     -69.734 -56.528 -34.605  0.00  0.00    +0.000 A 
ATOM     19  C   UNL     1     -70.038 -56.558 -33.246  0.00  0.00    +0.000 A 
ATOM     20  C   UNL     1     -68.037 -57.800 -32.806  0.00  0.00    +0.000 A 
ATOM     21  C   UNL     1     -69.196 -57.192 -32.337  0.00  0.00    +0.000 A 
BRANCH  20  22
ATOM     22  O   UNL     1     -67.217 -58.419 -31.907  0.00  0.00    +0.000 OA
ATOM     23  H   UNL     1     -66.620 -59.014 -32.394  0.00  0.00    +0.000 HD
ENDBRANCH  20  22
BRANCH  19  24
ATOM     24  O   UNL     1     -71.173 -55.964 -32.775  0.00  0.00    +0.000 OA
ATOM     25  H   UNL     1     -71.522 -55.376 -33.468  0.00  0.00    +0.000 HD
ENDBRANCH  19  24
ENDBRANCH  15  16
ENDBRANCH   2  15
TORSDOF 10
ENDMDL
MODEL 4
REMARK VINA RESULT:      -4.1     11.052     23.960
REMARK  Name = 76617_Cardol.pdbqt.pdb
REMARK  10 active torsions:
REMARK  status: ('A' for Active; 'I' for Inactive)
REMARK    1  A    between atoms: C_1  and  C_2
REMARK    2  A    between atoms: C_3  and  C_4
REMARK    3  A    between atoms: C_5  and  C_6
REMARK    4  A    between atoms: C_7  and  C_8
REMARK    5  A    between atoms: C_8  and  C_9
REMARK    6  A    between atoms: C_10  and  C_11
REMARK    7  A    between atoms: C_14  and  C_15
REMARK    8  A    between atoms: C_15  and  C_16
REMARK    9  A    between atoms: C_19  and  O_24
REMARK   10  A    between atoms: C_20  and  O_22
REMARK                            x       y       z     vdW  Elec       q    Type
REMARK                         _______ _______ _______ _____ _____    ______ ____
ROOT
ATOM      1  C   UNL     1     -67.628 -57.118 -39.317  0.00  0.00    +0.000 C 
ATOM      2  C   UNL     1     -67.197 -57.115 -40.436  0.00  0.00    +0.000 C 
ENDROOT
BRANCH   1   3
ATOM      3  C   UNL     1     -68.178 -57.121 -37.887  0.00  0.00    +0.000 C 
ATOM      4  C   UNL     1     -68.727 -57.125 -36.457  0.00  0.00    +0.000 C 
BRANCH   4   5
ATOM      5  C   UNL     1     -69.275 -57.127 -35.027  0.00  0.00    +0.000 C 
ATOM      6  C   UNL     1     -69.823 -57.129 -33.597  0.00  0.00    +0.000 C 
BRANCH   6   7
ATOM      7  C   UNL     1     -70.372 -57.131 -32.167  0.00  0.00    +0.000 C 
ATOM      8  C   UNL     1     -70.921 -57.132 -30.737  0.00  0.00    +0.000 C 
BRANCH   8   9
ATOM      9  C   UNL     1     -71.469 -57.134 -29.307  0.00  0.00    +0.000 C 
BRANCH   9  10
ATOM     10  C   UNL     1     -72.017 -57.136 -27.877  0.00  0.00    +0.000 C 
ATOM     11  C   UNL     1     -72.564 -57.138 -26.446  0.00  0.00    +0.000 C 
BRANCH  11  12
ATOM     12  C   UNL     1     -73.111 -57.141 -25.015  0.00  0.00    +0.000 C 
ATOM     13  C   UNL     1     -73.657 -57.144 -23.585  0.00  0.00    +0.000 C 
ATOM     14  C   UNL     1     -74.204 -57.147 -22.154  0.00  0.00    +0.000 C 
ENDBRANCH  11  12
ENDBRANCH   9  10
ENDBRANCH   8   9
ENDBRANCH   6   7
ENDBRANCH   4   5
ENDBRANCH   1   3
BRANCH   2  15
ATOM     15  C   UNL     1     -66.648 -57.113 -41.867  0.00  0.00    +0.000 C 
BRANCH  15  16
ATOM     16  C   UNL     1     -66.138 -57.110 -43.197  0.00  0.00    +0.000 A 
ATOM     17  C   UNL     1     -64.764 -57.025 -43.413  0.00  0.00    +0.000 A 
ATOM     18  C   UNL     1     -67.016 -57.192 -44.276  0.00  0.00    +0.000 A 
ATOM     19  C   UNL     1     -66.508 -57.188 -45.573  0.00  0.00    +0.000 A 
ATOM     20  C   UNL     1     -64.276 -57.023 -44.718  0.00  0.00    +0.000 A 
ATOM     21  C   UNL     1     -65.139 -57.104 -45.805  0.00  0.00    +0.000 A 
BRANCH  20  22
ATOM     22  O   UNL     1     -62.934 -56.941 -44.956  0.00  0.00    +0.000 OA
ATOM     23  H   UNL     1     -62.620 -56.073 -44.650  0.00  0.00    +0.000 HD
ENDBRANCH  20  22
BRANCH  19  24
ATOM     24  O   UNL     1     -67.346 -57.267 -46.648  0.00  0.00    +0.000 OA
ATOM     25  H   UNL     1     -66.861 -57.679 -47.384  0.00  0.00    +0.000 HD
ENDBRANCH  19  24
ENDBRANCH  15  16
ENDBRANCH   2  15
TORSDOF 10
ENDMDL
MODEL 5
REMARK VINA RESULT:      -4.1      5.947     17.815
REMARK  Name = 76617_Cardol.pdbqt.pdb
REMARK  10 active torsions:
REMARK  status: ('A' for Active; 'I' for Inactive)
REMARK    1  A    between atoms: C_1  and  C_2
REMARK    2  A    between atoms: C_3  and  C_4
REMARK    3  A    between atoms: C_5  and  C_6
REMARK    4  A    between atoms: C_7  and  C_8
REMARK    5  A    between atoms: C_8  and  C_9
REMARK    6  A    between atoms: C_10  and  C_11
REMARK    7  A    between atoms: C_14  and  C_15
REMARK    8  A    between atoms: C_15  and  C_16
REMARK    9  A    between atoms: C_19  and  O_24
REMARK   10  A    between atoms: C_20  and  O_22
REMARK                            x       y       z     vdW  Elec       q    Type
REMARK                         _______ _______ _______ _____ _____    ______ ____
ROOT
ATOM      1  C   UNL     1     -61.906 -56.905 -48.688  0.00  0.00    +0.000 C 
ATOM      2  C   UNL     1     -61.267 -56.923 -49.703  0.00  0.00    +0.000 C 
ENDROOT
BRANCH   1   3
ATOM      3  C   UNL     1     -62.721 -56.883 -47.391  0.00  0.00    +0.000 C 
ATOM      4  C   UNL     1     -63.535 -56.861 -46.094  0.00  0.00    +0.000 C 
BRANCH   4   5
ATOM      5  C   UNL     1     -64.348 -56.839 -44.796  0.00  0.00    +0.000 C 
ATOM      6  C   UNL     1     -65.162 -56.817 -43.499  0.00  0.00    +0.000 C 
BRANCH   6   7
ATOM      7  C   UNL     1     -65.976 -56.795 -42.201  0.00  0.00    +0.000 C 
ATOM      8  C   UNL     1     -66.789 -56.774 -40.904  0.00  0.00    +0.000 C 
BRANCH   8   9
ATOM      9  C   UNL     1     -67.602 -56.752 -39.607  0.00  0.00    +0.000 C 
BRANCH   9  10
ATOM     10  C   UNL     1     -68.415 -56.729 -38.308  0.00  0.00    +0.000 C 
ATOM     11  C   UNL     1     -69.226 -56.705 -37.010  0.00  0.00    +0.000 C 
BRANCH  11  12
ATOM     12  C   UNL     1     -70.038 -56.682 -35.711  0.00  0.00    +0.000 C 
ATOM     13  C   UNL     1     -70.850 -56.658 -34.412  0.00  0.00    +0.000 C 
ATOM     14  C   UNL     1     -71.662 -56.635 -33.113  0.00  0.00    +0.000 C 
ENDBRANCH  11  12
ENDBRANCH   9  10
ENDBRANCH   8   9
ENDBRANCH   6   7
ENDBRANCH   4   5
ENDBRANCH   1   3
BRANCH   2  15
ATOM     15  C   UNL     1     -60.452 -56.944 -51.001  0.00  0.00    +0.000 C 
BRANCH  15  16
ATOM     16  C   UNL     1     -59.693 -56.964 -52.206  0.00  0.00    +0.000 A 
ATOM     17  C   UNL     1     -60.295 -57.357 -53.399  0.00  0.00    +0.000 A 
ATOM     18  C   UNL     1     -58.351 -56.589 -52.186  0.00  0.00    +0.000 A 
ATOM     19  C   UNL     1     -57.617 -56.612 -53.369  0.00  0.00    +0.000 A 
ATOM     20  C   UNL     1     -59.544 -57.373 -54.572  0.00  0.00    +0.000 A 
ATOM     21  C   UNL     1     -58.204 -57.003 -54.569  0.00  0.00    +0.000 A 
BRANCH  20  22
ATOM     22  O   UNL     1     -60.112 -57.754 -55.753  0.00  0.00    +0.000 OA
ATOM     23  H   UNL     1     -59.538 -57.457 -56.481  0.00  0.00    +0.000 HD
ENDBRANCH  20  22
BRANCH  19  24
ATOM     24  O   UNL     1     -56.300 -56.251 -53.377  0.00  0.00    +0.000 OA
ATOM     25  H   UNL     1     -56.247 -55.284 -53.275  0.00  0.00    +0.000 HD
ENDBRANCH  19  24
ENDBRANCH  15  16
ENDBRANCH   2  15
TORSDOF 10
ENDMDL
MODEL 6
REMARK VINA RESULT:      -3.9     10.262     16.165
REMARK  Name = 76617_Cardol.pdbqt.pdb
REMARK  10 active torsions:
REMARK  status: ('A' for Active; 'I' for Inactive)
REMARK    1  A    between atoms: C_1  and  C_2
REMARK    2  A    between atoms: C_3  and  C_4
REMARK    3  A    between atoms: C_5  and  C_6
REMARK    4  A    between atoms: C_7  and  C_8
REMARK    5  A    between atoms: C_8  and  C_9
REMARK    6  A    between atoms: C_10  and  C_11
REMARK    7  A    between atoms: C_14  and  C_15
REMARK    8  A    between atoms: C_15  and  C_16
REMARK    9  A    between atoms: C_19  and  O_24
REMARK   10  A    between atoms: C_20  and  O_22
REMARK                            x       y       z     vdW  Elec       q    Type
REMARK                         _______ _______ _______ _____ _____    ______ ____
ROOT
ATOM      1  C   UNL     1     -59.605 -59.732 -63.617  0.00  0.00    +0.000 C 
ATOM      2  C   UNL     1     -59.694 -58.999 -62.671  0.00  0.00    +0.000 C 
ENDROOT
BRANCH   1   3
ATOM      3  C   UNL     1     -59.491 -60.668 -64.824  0.00  0.00    +0.000 C 
ATOM      4  C   UNL     1     -59.379 -61.604 -66.032  0.00  0.00    +0.000 C 
BRANCH   4   5
ATOM      5  C   UNL     1     -59.267 -62.538 -67.240  0.00  0.00    +0.000 C 
ATOM      6  C   UNL     1     -59.154 -63.472 -68.449  0.00  0.00    +0.000 C 
BRANCH   6   7
ATOM      7  C   UNL     1     -59.042 -64.406 -69.658  0.00  0.00    +0.000 C 
ATOM      8  C   UNL     1     -58.930 -65.339 -70.867  0.00  0.00    +0.000 C 
BRANCH   8   9
ATOM      9  C   UNL     1     -58.817 -66.272 -72.076  0.00  0.00    +0.000 C 
BRANCH   9  10
ATOM     10  C   UNL     1     -58.706 -67.205 -73.286  0.00  0.00    +0.000 C 
ATOM     11  C   UNL     1     -58.594 -68.140 -74.494  0.00  0.00    +0.000 C 
BRANCH  11  12
ATOM     12  C   UNL     1     -58.482 -69.074 -75.703  0.00  0.00    +0.000 C 
ATOM     13  C   UNL     1     -58.370 -70.008 -76.911  0.00  0.00    +0.000 C 
ATOM     14  C   UNL     1     -58.258 -70.942 -78.120  0.00  0.00    +0.000 C 
ENDBRANCH  11  12
ENDBRANCH   9  10
ENDBRANCH   8   9
ENDBRANCH   6   7
ENDBRANCH   4   5
ENDBRANCH   1   3
BRANCH   2  15
ATOM     15  C   UNL     1     -59.807 -58.062 -61.464  0.00  0.00    +0.000 C 
BRANCH  15  16
ATOM     16  C   UNL     1     -59.913 -57.190 -60.343  0.00  0.00    +0.000 A 
ATOM     17  C   UNL     1     -60.368 -57.683 -59.121  0.00  0.00    +0.000 A 
ATOM     18  C   UNL     1     -59.559 -55.849 -60.473  0.00  0.00    +0.000 A 
ATOM     19  C   UNL     1     -59.666 -55.004 -59.370  0.00  0.00    +0.000 A 
ATOM     20  C   UNL     1     -60.467 -56.822 -58.031  0.00  0.00    +0.000 A 
ATOM     21  C   UNL     1     -60.119 -55.480 -58.144  0.00  0.00    +0.000 A 
BRANCH  20  22
ATOM     22  O   UNL     1     -60.910 -57.280 -56.824  0.00  0.00    +0.000 OA
ATOM     23  H   UNL     1     -60.396 -58.072 -56.588  0.00  0.00    +0.000 HD
ENDBRANCH  20  22
BRANCH  19  24
ATOM     24  O   UNL     1     -59.327 -53.685 -59.470  0.00  0.00    +0.000 OA
ATOM     25  H   UNL     1     -59.880 -53.179 -58.850  0.00  0.00    +0.000 HD
ENDBRANCH  19  24
ENDBRANCH  15  16
ENDBRANCH   2  15
TORSDOF 10
ENDMDL
MODEL 7
REMARK VINA RESULT:      -3.9      7.823     18.079
REMARK  Name = 76617_Cardol.pdbqt.pdb
REMARK  10 active torsions:
REMARK  status: ('A' for Active; 'I' for Inactive)
REMARK    1  A    between atoms: C_1  and  C_2
REMARK    2  A    between atoms: C_3  and  C_4
REMARK    3  A    between atoms: C_5  and  C_6
REMARK    4  A    between atoms: C_7  and  C_8
REMARK    5  A    between atoms: C_8  and  C_9
REMARK    6  A    between atoms: C_10  and  C_11
REMARK    7  A    between atoms: C_14  and  C_15
REMARK    8  A    between atoms: C_15  and  C_16
REMARK    9  A    between atoms: C_19  and  O_24
REMARK   10  A    between atoms: C_20  and  O_22
REMARK                            x       y       z     vdW  Elec       q    Type
REMARK                         _______ _______ _______ _____ _____    ______ ____
ROOT
ATOM      1  C   UNL     1     -56.919 -57.476 -60.325  0.00  0.00    +0.000 C 
ATOM      2  C   UNL     1     -56.436 -57.520 -61.422  0.00  0.00    +0.000 C 
ENDROOT
BRANCH   1   3
ATOM      3  C   UNL     1     -57.537 -57.421 -58.925  0.00  0.00    +0.000 C 
ATOM      4  C   UNL     1     -58.156 -57.365 -57.524  0.00  0.00    +0.000 C 
BRANCH   4   5
ATOM      5  C   UNL     1     -58.775 -57.311 -56.125  0.00  0.00    +0.000 C 
ATOM      6  C   UNL     1     -59.394 -57.256 -54.725  0.00  0.00    +0.000 C 
BRANCH   6   7
ATOM      7  C   UNL     1     -60.013 -57.200 -53.325  0.00  0.00    +0.000 C 
ATOM      8  C   UNL     1     -60.633 -57.146 -51.926  0.00  0.00    +0.000 C 
BRANCH   8   9
ATOM      9  C   UNL     1     -61.253 -57.091 -50.527  0.00  0.00    +0.000 C 
BRANCH   9  10
ATOM     10  C   UNL     1     -61.874 -57.037 -49.127  0.00  0.00    +0.000 C 
ATOM     11  C   UNL     1     -62.494 -56.985 -47.728  0.00  0.00    +0.000 C 
BRANCH  11  12
ATOM     12  C   UNL     1     -63.116 -56.932 -46.329  0.00  0.00    +0.000 C 
ATOM     13  C   UNL     1     -63.737 -56.879 -44.930  0.00  0.00    +0.000 C 
ATOM     14  C   UNL     1     -64.358 -56.826 -43.531  0.00  0.00    +0.000 C 
ENDBRANCH  11  12
ENDBRANCH   9  10
ENDBRANCH   8   9
ENDBRANCH   6   7
ENDBRANCH   4   5
ENDBRANCH   1   3
BRANCH   2  15
ATOM     15  C   UNL     1     -55.817 -57.575 -62.823  0.00  0.00    +0.000 C 
BRANCH  15  16
ATOM     16  C   UNL     1     -55.241 -57.627 -64.125  0.00  0.00    +0.000 A 
ATOM     17  C   UNL     1     -54.143 -56.826 -64.431  0.00  0.00    +0.000 A 
ATOM     18  C   UNL     1     -55.778 -58.481 -65.086  0.00  0.00    +0.000 A 
ATOM     19  C   UNL     1     -55.208 -58.525 -66.356  0.00  0.00    +0.000 A 
ATOM     20  C   UNL     1     -53.587 -56.885 -65.706  0.00  0.00    +0.000 A 
ATOM     21  C   UNL     1     -54.112 -57.731 -66.677  0.00  0.00    +0.000 A 
BRANCH  20  22
ATOM     22  O   UNL     1     -52.511 -56.110 -66.030  0.00  0.00    +0.000 OA
ATOM     23  H   UNL     1     -52.812 -55.395 -66.617  0.00  0.00    +0.000 HD
ENDBRANCH  20  22
BRANCH  19  24
ATOM     24  O   UNL     1     -55.716 -59.351 -67.318  0.00  0.00    +0.000 OA
ATOM     25  H   UNL     1     -55.108 -60.103 -67.427  0.00  0.00    +0.000 HD
ENDBRANCH  19  24
ENDBRANCH  15  16
ENDBRANCH   2  15
TORSDOF 10
ENDMDL
MODEL 8
REMARK VINA RESULT:      -3.9      6.615     11.545
REMARK  Name = 76617_Cardol.pdbqt.pdb
REMARK  10 active torsions:
REMARK  status: ('A' for Active; 'I' for Inactive)
REMARK    1  A    between atoms: C_1  and  C_2
REMARK    2  A    between atoms: C_3  and  C_4
REMARK    3  A    between atoms: C_5  and  C_6
REMARK    4  A    between atoms: C_7  and  C_8
REMARK    5  A    between atoms: C_8  and  C_9
REMARK    6  A    between atoms: C_10  and  C_11
REMARK    7  A    between atoms: C_14  and  C_15
REMARK    8  A    between atoms: C_15  and  C_16
REMARK    9  A    between atoms: C_19  and  O_24
REMARK   10  A    between atoms: C_20  and  O_22
REMARK                            x       y       z     vdW  Elec       q    Type
REMARK                         _______ _______ _______ _____ _____    ______ ____
ROOT
ATOM      1  C   UNL     1     -67.661 -56.706 -39.014  0.00  0.00    +0.000 C 
ATOM      2  C   UNL     1     -68.249 -56.677 -37.969  0.00  0.00    +0.000 C 
ENDROOT
BRANCH   1   3
ATOM      3  C   UNL     1     -66.909 -56.745 -40.348  0.00  0.00    +0.000 C 
ATOM      4  C   UNL     1     -66.158 -56.785 -41.683  0.00  0.00    +0.000 C 
BRANCH   4   5
ATOM      5  C   UNL     1     -65.408 -56.823 -43.017  0.00  0.00    +0.000 C 
ATOM      6  C   UNL     1     -64.659 -56.861 -44.352  0.00  0.00    +0.000 C 
BRANCH   6   7
ATOM      7  C   UNL     1     -63.909 -56.899 -45.688  0.00  0.00    +0.000 C 
ATOM      8  C   UNL     1     -63.160 -56.937 -47.023  0.00  0.00    +0.000 C 
BRANCH   8   9
ATOM      9  C   UNL     1     -62.412 -56.975 -48.359  0.00  0.00    +0.000 C 
BRANCH   9  10
ATOM     10  C   UNL     1     -61.662 -57.012 -49.694  0.00  0.00    +0.000 C 
ATOM     11  C   UNL     1     -60.914 -57.049 -51.030  0.00  0.00    +0.000 C 
BRANCH  11  12
ATOM     12  C   UNL     1     -60.165 -57.087 -52.366  0.00  0.00    +0.000 C 
ATOM     13  C   UNL     1     -59.417 -57.126 -53.701  0.00  0.00    +0.000 C 
ATOM     14  C   UNL     1     -58.667 -57.164 -55.037  0.00  0.00    +0.000 C 
ENDBRANCH  11  12
ENDBRANCH   9  10
ENDBRANCH   8   9
ENDBRANCH   6   7
ENDBRANCH   4   5
ENDBRANCH   1   3
BRANCH   2  15
ATOM     15  C   UNL     1     -69.002 -56.637 -36.635  0.00  0.00    +0.000 C 
BRANCH  15  16
ATOM     16  C   UNL     1     -69.701 -56.601 -35.395  0.00  0.00    +0.000 A 
ATOM     17  C   UNL     1     -69.112 -57.133 -34.249  0.00  0.00    +0.000 A 
ATOM     18  C   UNL     1     -70.973 -56.034 -35.332  0.00  0.00    +0.000 A 
ATOM     19  C   UNL     1     -71.649 -56.003 -34.115  0.00  0.00    +0.000 A 
ATOM     20  C   UNL     1     -69.804 -57.092 -33.042  0.00  0.00    +0.000 A 
ATOM     21  C   UNL     1     -71.073 -56.530 -32.963  0.00  0.00    +0.000 A 
BRANCH  20  22
ATOM     22  O   UNL     1     -69.248 -57.606 -31.906  0.00  0.00    +0.000 OA
ATOM     23  H   UNL     1     -68.882 -58.483 -32.113  0.00  0.00    +0.000 HD
ENDBRANCH  20  22
BRANCH  19  24
ATOM     24  O   UNL     1     -72.896 -55.454 -34.026  0.00  0.00    +0.000 OA
ATOM     25  H   UNL     1     -72.800 -54.513 -33.797  0.00  0.00    +0.000 HD
ENDBRANCH  19  24
ENDBRANCH  15  16
ENDBRANCH   2  15
TORSDOF 10
ENDMDL
MODEL 9
REMARK VINA RESULT:      -3.9     15.391     23.851
REMARK  Name = 76617_Cardol.pdbqt.pdb
REMARK  10 active torsions:
REMARK  status: ('A' for Active; 'I' for Inactive)
REMARK    1  A    between atoms: C_1  and  C_2
REMARK    2  A    between atoms: C_3  and  C_4
REMARK    3  A    between atoms: C_5  and  C_6
REMARK    4  A    between atoms: C_7  and  C_8
REMARK    5  A    between atoms: C_8  and  C_9
REMARK    6  A    between atoms: C_10  and  C_11
REMARK    7  A    between atoms: C_14  and  C_15
REMARK    8  A    between atoms: C_15  and  C_16
REMARK    9  A    between atoms: C_19  and  O_24
REMARK   10  A    between atoms: C_20  and  O_22
REMARK                            x       y       z     vdW  Elec       q    Type
REMARK                         _______ _______ _______ _____ _____    ______ ____
ROOT
ATOM      1  C   UNL     1     -62.169 -46.591 -39.901  0.00  0.00    +0.000 C 
ATOM      2  C   UNL     1     -61.399 -46.274 -40.765  0.00  0.00    +0.000 C 
ENDROOT
BRANCH   1   3
ATOM      3  C   UNL     1     -63.150 -46.995 -38.798  0.00  0.00    +0.000 C 
ATOM      4  C   UNL     1     -64.134 -47.399 -37.694  0.00  0.00    +0.000 C 
BRANCH   4   5
ATOM      5  C   UNL     1     -65.117 -47.804 -36.592  0.00  0.00    +0.000 C 
ATOM      6  C   UNL     1     -66.100 -48.209 -35.490  0.00  0.00    +0.000 C 
BRANCH   6   7
ATOM      7  C   UNL     1     -67.084 -48.615 -34.388  0.00  0.00    +0.000 C 
ATOM      8  C   UNL     1     -68.068 -49.020 -33.287  0.00  0.00    +0.000 C 
BRANCH   8   9
ATOM      9  C   UNL     1     -69.052 -49.425 -32.186  0.00  0.00    +0.000 C 
BRANCH   9  10
ATOM     10  C   UNL     1     -70.035 -49.831 -31.083  0.00  0.00    +0.000 C 
ATOM     11  C   UNL     1     -71.019 -50.237 -29.982  0.00  0.00    +0.000 C 
BRANCH  11  12
ATOM     12  C   UNL     1     -72.003 -50.642 -28.880  0.00  0.00    +0.000 C 
ATOM     13  C   UNL     1     -72.987 -51.047 -27.779  0.00  0.00    +0.000 C 
ATOM     14  C   UNL     1     -73.971 -51.452 -26.677  0.00  0.00    +0.000 C 
ENDBRANCH  11  12
ENDBRANCH   9  10
ENDBRANCH   8   9
ENDBRANCH   6   7
ENDBRANCH   4   5
ENDBRANCH   1   3
BRANCH   2  15
ATOM     15  C   UNL     1     -60.417 -45.871 -41.870  0.00  0.00    +0.000 C 
BRANCH  15  16
ATOM     16  C   UNL     1     -59.503 -45.496 -42.897  0.00  0.00    +0.000 A 
ATOM     17  C   UNL     1     -59.048 -46.451 -43.804  0.00  0.00    +0.000 A 
ATOM     18  C   UNL     1     -59.069 -44.175 -42.990  0.00  0.00    +0.000 A 
ATOM     19  C   UNL     1     -58.176 -43.818 -43.998  0.00  0.00    +0.000 A 
ATOM     20  C   UNL     1     -58.156 -46.074 -44.804  0.00  0.00    +0.000 A 
ATOM     21  C   UNL     1     -57.712 -44.760 -44.911  0.00  0.00    +0.000 A 
BRANCH  20  22
ATOM     22  O   UNL     1     -57.696 -46.991 -45.705  0.00  0.00    +0.000 OA
ATOM     23  H   UNL     1     -58.323 -47.035 -46.447  0.00  0.00    +0.000 HD
ENDBRANCH  20  22
BRANCH  19  24
ATOM     24  O   UNL     1     -57.735 -42.531 -44.111  0.00  0.00    +0.000 OA
ATOM     25  H   UNL     1     -57.281 -42.437 -44.967  0.00  0.00    +0.000 HD
ENDBRANCH  19  24
ENDBRANCH  15  16
ENDBRANCH   2  15
TORSDOF 10
ENDMDL
