MODEL 1
REMARK VINA RESULT:      -4.8      0.000      0.000
REMARK  Name = 85668777_Hyaluronidase.pdbqt.pdb
REMARK  5 active torsions:
REMARK  status: ('A' for Active; 'I' for Inactive)
REMARK    1  A    between atoms: N_1  and  C_13
REMARK    2  A    between atoms: C_14  and  C_15
REMARK    3  A    between atoms: C_15  and  C_16
REMARK    4  A    between atoms: C_17  and  C_19
REMARK    5  A    between atoms: C_19  and  O_20
REMARK                            x       y       z     vdW  Elec       q    Type
REMARK                         _______ _______ _______ _____ _____    ______ ____
ROOT
ATOM      1  N   UNL     1     -55.296 -58.326 -66.094  0.00  0.00    +0.000 N 
ATOM      2  C   UNL     1     -53.048 -57.432 -66.098  0.00  0.00    +0.000 C 
ATOM      3  C   UNL     1     -53.700 -57.381 -67.480  0.00  0.00    +0.000 A 
ATOM      4  C   UNL     1     -54.210 -58.082 -65.252  0.00  0.00    +0.000 C 
ATOM      5  C   UNL     1     -55.003 -57.916 -67.406  0.00  0.00    +0.000 A 
ATOM      6  C   UNL     1     -51.779 -58.340 -66.164  0.00  0.00    +0.000 C 
ATOM      7  C   UNL     1     -52.719 -55.976 -65.635  0.00  0.00    +0.000 C 
ATOM      8  C   UNL     1     -53.188 -56.910 -68.680  0.00  0.00    +0.000 A 
ATOM      9  C   UNL     1     -55.808 -57.985 -68.529  0.00  0.00    +0.000 A 
ATOM     10  C   UNL     1     -54.256 -58.394 -63.941  0.00  0.00    +0.000 C 
ATOM     11  C   UNL     1     -54.001 -56.979 -69.811  0.00  0.00    +0.000 A 
ATOM     12  C   UNL     1     -55.296 -57.510 -69.736  0.00  0.00    +0.000 A 
ENDROOT
BRANCH   1  13
ATOM     13  C   UNL     1     -56.556 -58.913 -65.705  0.00  0.00    +0.000 C 
ATOM     14  C   UNL     1     -57.894 -59.538 -65.296  0.00  0.00    +0.000 C 
BRANCH  14  15
ATOM     15  C   UNL     1     -59.231 -60.163 -64.889  0.00  0.00    +0.000 C 
BRANCH  15  16
ATOM     16  C   UNL     1     -60.568 -60.788 -64.481  0.00  0.00    +0.000 C 
ATOM     17  C   UNL     1     -61.905 -61.414 -64.072  0.00  0.00    +0.000 C 
BRANCH  17  19
ATOM     18  O   UNL     1     -63.244 -62.969 -62.955  0.00  0.00    +0.000 OA
ATOM     19  C   UNL     1     -63.154 -62.000 -63.688  0.00  0.00    +0.000 C 
BRANCH  19  20
ATOM     20  O   UNL     1     -64.230 -61.385 -64.210  0.00  0.00    +0.000 OA
ATOM     21  H   UNL     1     -64.970 -61.984 -63.985  0.00  0.00    +0.000 HD
ENDBRANCH  19  20
ENDBRANCH  17  19
ENDBRANCH  15  16
ENDBRANCH  14  15
ENDBRANCH   1  13
TORSDOF 5
ENDMDL
MODEL 2
REMARK VINA RESULT:      -4.8     36.994     41.279
REMARK  Name = 85668777_Hyaluronidase.pdbqt.pdb
REMARK  5 active torsions:
REMARK  status: ('A' for Active; 'I' for Inactive)
REMARK    1  A    between atoms: N_1  and  C_13
REMARK    2  A    between atoms: C_14  and  C_15
REMARK    3  A    between atoms: C_15  and  C_16
REMARK    4  A    between atoms: C_17  and  C_19
REMARK    5  A    between atoms: C_19  and  O_20
REMARK                            x       y       z     vdW  Elec       q    Type
REMARK                         _______ _______ _______ _____ _____    ______ ____
ROOT
ATOM      1  N   UNL     1     -72.711 -56.851 -27.438  0.00  0.00    +0.000 N 
ATOM      2  C   UNL     1     -74.449 -56.220 -25.877  0.00  0.00    +0.000 C 
ATOM      3  C   UNL     1     -73.434 -57.183 -25.264  0.00  0.00    +0.000 A 
ATOM      4  C   UNL     1     -73.862 -56.069 -27.334  0.00  0.00    +0.000 C 
ATOM      5  C   UNL     1     -72.453 -57.509 -26.224  0.00  0.00    +0.000 A 
ATOM      6  C   UNL     1     -75.860 -56.890 -25.871  0.00  0.00    +0.000 C 
ATOM      7  C   UNL     1     -74.422 -54.874 -25.083  0.00  0.00    +0.000 C 
ATOM      8  C   UNL     1     -73.386 -57.718 -23.984  0.00  0.00    +0.000 A 
ATOM      9  C   UNL     1     -71.414 -58.369 -25.916  0.00  0.00    +0.000 A 
ATOM     10  C   UNL     1     -74.312 -55.341 -28.377  0.00  0.00    +0.000 C 
ATOM     11  C   UNL     1     -72.339 -58.585 -23.675  0.00  0.00    +0.000 A 
ATOM     12  C   UNL     1     -71.364 -58.907 -24.630  0.00  0.00    +0.000 A 
ENDROOT
BRANCH   1  13
ATOM     13  C   UNL     1     -71.880 -56.984 -28.610  0.00  0.00    +0.000 C 
ATOM     14  C   UNL     1     -71.001 -57.124 -29.857  0.00  0.00    +0.000 C 
BRANCH  14  15
ATOM     15  C   UNL     1     -70.124 -57.264 -31.105  0.00  0.00    +0.000 C 
BRANCH  15  16
ATOM     16  C   UNL     1     -69.247 -57.404 -32.352  0.00  0.00    +0.000 C 
ATOM     17  C   UNL     1     -68.370 -57.545 -33.600  0.00  0.00    +0.000 C 
BRANCH  17  19
ATOM     18  O   UNL     1     -67.526 -56.859 -35.668  0.00  0.00    +0.000 OA
ATOM     19  C   UNL     1     -67.548 -57.678 -34.765  0.00  0.00    +0.000 C 
BRANCH  19  20
ATOM     20  O   UNL     1     -66.798 -58.793 -34.782  0.00  0.00    +0.000 OA
ATOM     21  H   UNL     1     -67.454 -59.512 -34.884  0.00  0.00    +0.000 HD
ENDBRANCH  19  20
ENDBRANCH  17  19
ENDBRANCH  15  16
ENDBRANCH  14  15
ENDBRANCH   1  13
TORSDOF 5
ENDMDL
MODEL 3
REMARK VINA RESULT:      -4.7     28.519     31.759
REMARK  Name = 85668777_Hyaluronidase.pdbqt.pdb
REMARK  5 active torsions:
REMARK  status: ('A' for Active; 'I' for Inactive)
REMARK    1  A    between atoms: N_1  and  C_13
REMARK    2  A    between atoms: C_14  and  C_15
REMARK    3  A    between atoms: C_15  and  C_16
REMARK    4  A    between atoms: C_17  and  C_19
REMARK    5  A    between atoms: C_19  and  O_20
REMARK                            x       y       z     vdW  Elec       q    Type
REMARK                         _______ _______ _______ _____ _____    ______ ____
ROOT
ATOM      1  N   UNL     1     -68.347 -57.294 -38.504  0.00  0.00    +0.000 N 
ATOM      2  C   UNL     1     -68.090 -58.243 -40.716  0.00  0.00    +0.000 C 
ATOM      3  C   UNL     1     -67.602 -56.796 -40.639  0.00  0.00    +0.000 A 
ATOM      4  C   UNL     1     -68.565 -58.468 -39.228  0.00  0.00    +0.000 C 
ATOM      5  C   UNL     1     -67.781 -56.307 -39.329  0.00  0.00    +0.000 A 
ATOM      6  C   UNL     1     -69.268 -58.332 -41.737  0.00  0.00    +0.000 C 
ATOM      7  C   UNL     1     -66.891 -59.167 -41.102  0.00  0.00    +0.000 C 
ATOM      8  C   UNL     1     -67.056 -55.995 -41.633  0.00  0.00    +0.000 A 
ATOM      9  C   UNL     1     -67.416 -55.015 -38.996  0.00  0.00    +0.000 A 
ATOM     10  C   UNL     1     -69.103 -59.560 -38.648  0.00  0.00    +0.000 C 
ATOM     11  C   UNL     1     -66.689 -54.693 -41.296  0.00  0.00    +0.000 A 
ATOM     12  C   UNL     1     -66.866 -54.209 -39.993  0.00  0.00    +0.000 A 
ENDROOT
BRANCH   1  13
ATOM     13  C   UNL     1     -68.647 -57.092 -37.107  0.00  0.00    +0.000 C 
ATOM     14  C   UNL     1     -68.970 -56.873 -35.626  0.00  0.00    +0.000 C 
BRANCH  14  15
ATOM     15  C   UNL     1     -69.294 -56.655 -34.145  0.00  0.00    +0.000 C 
BRANCH  15  16
ATOM     16  C   UNL     1     -69.618 -56.436 -32.665  0.00  0.00    +0.000 C 
ATOM     17  C   UNL     1     -69.942 -56.218 -31.183  0.00  0.00    +0.000 C 
BRANCH  17  19
ATOM     18  O   UNL     1     -70.991 -56.739 -29.162  0.00  0.00    +0.000 OA
ATOM     19  C   UNL     1     -70.245 -56.016 -29.799  0.00  0.00    +0.000 C 
BRANCH  19  20
ATOM     20  O   UNL     1     -69.631 -54.951 -29.254  0.00  0.00    +0.000 OA
ATOM     21  H   UNL     1     -69.228 -55.308 -28.437  0.00  0.00    +0.000 HD
ENDBRANCH  19  20
ENDBRANCH  17  19
ENDBRANCH  15  16
ENDBRANCH  14  15
ENDBRANCH   1  13
TORSDOF 5
ENDMDL
MODEL 4
REMARK VINA RESULT:      -4.7     35.081     38.505
REMARK  Name = 85668777_Hyaluronidase.pdbqt.pdb
REMARK  5 active torsions:
REMARK  status: ('A' for Active; 'I' for Inactive)
REMARK    1  A    between atoms: N_1  and  C_13
REMARK    2  A    between atoms: C_14  and  C_15
REMARK    3  A    between atoms: C_15  and  C_16
REMARK    4  A    between atoms: C_17  and  C_19
REMARK    5  A    between atoms: C_19  and  O_20
REMARK                            x       y       z     vdW  Elec       q    Type
REMARK                         _______ _______ _______ _____ _____    ______ ____
ROOT
ATOM      1  N   UNL     1     -71.086 -57.114 -32.150  0.00  0.00    +0.000 N 
ATOM      2  C   UNL     1     -71.393 -56.611 -34.497  0.00  0.00    +0.000 C 
ATOM      3  C   UNL     1     -69.959 -57.028 -34.171  0.00  0.00    +0.000 A 
ATOM      4  C   UNL     1     -72.055 -56.706 -33.068  0.00  0.00    +0.000 C 
ATOM      5  C   UNL     1     -69.851 -57.304 -32.792  0.00  0.00    +0.000 A 
ATOM      6  C   UNL     1     -71.388 -55.152 -35.054  0.00  0.00    +0.000 C 
ATOM      7  C   UNL     1     -72.006 -57.635 -35.505  0.00  0.00    +0.000 C 
ATOM      8  C   UNL     1     -68.862 -57.147 -35.012  0.00  0.00    +0.000 A 
ATOM      9  C   UNL     1     -68.647 -57.704 -32.240  0.00  0.00    +0.000 A 
ATOM     10  C   UNL     1     -73.325 -56.460 -32.685  0.00  0.00    +0.000 C 
ATOM     11  C   UNL     1     -67.649 -57.550 -34.454  0.00  0.00    +0.000 A 
ATOM     12  C   UNL     1     -67.544 -57.826 -33.084  0.00  0.00    +0.000 A 
ENDROOT
BRANCH   1  13
ATOM     13  C   UNL     1     -71.291 -57.320 -30.736  0.00  0.00    +0.000 C 
ATOM     14  C   UNL     1     -71.513 -57.543 -29.237  0.00  0.00    +0.000 C 
BRANCH  14  15
ATOM     15  C   UNL     1     -71.736 -57.765 -27.738  0.00  0.00    +0.000 C 
BRANCH  15  16
ATOM     16  C   UNL     1     -71.959 -57.988 -26.240  0.00  0.00    +0.000 C 
ATOM     17  C   UNL     1     -72.184 -58.210 -24.741  0.00  0.00    +0.000 C 
BRANCH  17  19
ATOM     18  O   UNL     1     -73.104 -57.700 -22.655  0.00  0.00    +0.000 OA
ATOM     19  C   UNL     1     -72.395 -58.416 -23.340  0.00  0.00    +0.000 C 
BRANCH  19  20
ATOM     20  O   UNL     1     -71.739 -59.477 -22.838  0.00  0.00    +0.000 OA
ATOM     21  H   UNL     1     -70.841 -59.131 -22.660  0.00  0.00    +0.000 HD
ENDBRANCH  19  20
ENDBRANCH  17  19
ENDBRANCH  15  16
ENDBRANCH  14  15
ENDBRANCH   1  13
TORSDOF 5
ENDMDL
MODEL 5
REMARK VINA RESULT:      -4.7     15.889     17.930
REMARK  Name = 85668777_Hyaluronidase.pdbqt.pdb
REMARK  5 active torsions:
REMARK  status: ('A' for Active; 'I' for Inactive)
REMARK    1  A    between atoms: N_1  and  C_13
REMARK    2  A    between atoms: C_14  and  C_15
REMARK    3  A    between atoms: C_15  and  C_16
REMARK    4  A    between atoms: C_17  and  C_19
REMARK    5  A    between atoms: C_19  and  O_20
REMARK                            x       y       z     vdW  Elec       q    Type
REMARK                         _______ _______ _______ _____ _____    ______ ____
ROOT
ATOM      1  N   UNL     1     -59.747 -43.618 -60.756  0.00  0.00    +0.000 N 
ATOM      2  C   UNL     1     -60.367 -43.311 -58.437  0.00  0.00    +0.000 C 
ATOM      3  C   UNL     1     -60.949 -44.593 -59.034  0.00  0.00    +0.000 A 
ATOM      4  C   UNL     1     -59.581 -42.743 -59.681  0.00  0.00    +0.000 C 
ATOM      5  C   UNL     1     -60.550 -44.708 -60.382  0.00  0.00    +0.000 A 
ATOM      6  C   UNL     1     -61.537 -42.376 -57.994  0.00  0.00    +0.000 C 
ATOM      7  C   UNL     1     -59.417 -43.684 -57.254  0.00  0.00    +0.000 C 
ATOM      8  C   UNL     1     -61.751 -45.557 -58.441  0.00  0.00    +0.000 A 
ATOM      9  C   UNL     1     -60.948 -45.788 -61.151  0.00  0.00    +0.000 A 
ATOM     10  C   UNL     1     -58.846 -41.618 -59.800  0.00  0.00    +0.000 C 
ATOM     11  C   UNL     1     -62.151 -46.644 -59.217  0.00  0.00    +0.000 A 
ATOM     12  C   UNL     1     -61.753 -46.758 -60.556  0.00  0.00    +0.000 A 
ENDROOT
BRANCH   1  13
ATOM     13  C   UNL     1     -59.185 -43.456 -62.076  0.00  0.00    +0.000 C 
ATOM     14  C   UNL     1     -58.594 -43.287 -63.478  0.00  0.00    +0.000 C 
BRANCH  14  15
ATOM     15  C   UNL     1     -58.003 -43.117 -64.882  0.00  0.00    +0.000 C 
BRANCH  15  16
ATOM     16  C   UNL     1     -57.412 -42.948 -66.283  0.00  0.00    +0.000 C 
ATOM     17  C   UNL     1     -56.821 -42.780 -67.687  0.00  0.00    +0.000 C 
BRANCH  17  19
ATOM     18  O   UNL     1     -56.349 -41.589 -69.640  0.00  0.00    +0.000 OA
ATOM     19  C   UNL     1     -56.270 -42.622 -68.999  0.00  0.00    +0.000 C 
BRANCH  19  20
ATOM     20  O   UNL     1     -55.654 -43.721 -69.470  0.00  0.00    +0.000 OA
ATOM     21  H   UNL     1     -56.275 -44.063 -70.144  0.00  0.00    +0.000 HD
ENDBRANCH  19  20
ENDBRANCH  17  19
ENDBRANCH  15  16
ENDBRANCH  14  15
ENDBRANCH   1  13
TORSDOF 5
ENDMDL
MODEL 6
REMARK VINA RESULT:      -4.4     10.675     13.251
REMARK  Name = 85668777_Hyaluronidase.pdbqt.pdb
REMARK  5 active torsions:
REMARK  status: ('A' for Active; 'I' for Inactive)
REMARK    1  A    between atoms: N_1  and  C_13
REMARK    2  A    between atoms: C_14  and  C_15
REMARK    3  A    between atoms: C_15  and  C_16
REMARK    4  A    between atoms: C_17  and  C_19
REMARK    5  A    between atoms: C_19  and  O_20
REMARK                            x       y       z     vdW  Elec       q    Type
REMARK                         _______ _______ _______ _____ _____    ______ ____
ROOT
ATOM      1  N   UNL     1     -59.544 -56.758 -56.903  0.00  0.00    +0.000 N 
ATOM      2  C   UNL     1     -60.254 -56.879 -59.213  0.00  0.00    +0.000 C 
ATOM      3  C   UNL     1     -61.410 -56.571 -58.262  0.00  0.00    +0.000 A 
ATOM      4  C   UNL     1     -59.056 -56.982 -58.192  0.00  0.00    +0.000 C 
ATOM      5  C   UNL     1     -60.928 -56.517 -56.937  0.00  0.00    +0.000 A 
ATOM      6  C   UNL     1     -60.535 -58.233 -59.939  0.00  0.00    +0.000 C 
ATOM      7  C   UNL     1     -60.083 -55.688 -60.211  0.00  0.00    +0.000 C 
ATOM      8  C   UNL     1     -62.753 -56.364 -58.542  0.00  0.00    +0.000 A 
ATOM      9  C   UNL     1     -61.781 -56.252 -55.881  0.00  0.00    +0.000 A 
ATOM     10  C   UNL     1     -57.751 -57.237 -58.412  0.00  0.00    +0.000 C 
ATOM     11  C   UNL     1     -63.612 -56.098 -57.476  0.00  0.00    +0.000 A 
ATOM     12  C   UNL     1     -63.131 -56.042 -56.161  0.00  0.00    +0.000 A 
ENDROOT
BRANCH   1  13
ATOM     13  C   UNL     1     -58.766 -56.766 -55.688  0.00  0.00    +0.000 C 
ATOM     14  C   UNL     1     -57.934 -56.775 -54.401  0.00  0.00    +0.000 C 
BRANCH  14  15
ATOM     15  C   UNL     1     -57.103 -56.786 -53.115  0.00  0.00    +0.000 C 
BRANCH  15  16
ATOM     16  C   UNL     1     -56.271 -56.795 -51.830  0.00  0.00    +0.000 C 
ATOM     17  C   UNL     1     -55.438 -56.804 -50.544  0.00  0.00    +0.000 C 
BRANCH  17  19
ATOM     18  O   UNL     1     -53.574 -56.264 -49.243  0.00  0.00    +0.000 OA
ATOM     19  C   UNL     1     -54.658 -56.813 -49.344  0.00  0.00    +0.000 C 
BRANCH  19  20
ATOM     20  O   UNL     1     -55.226 -57.483 -48.326  0.00  0.00    +0.000 OA
ATOM     21  H   UNL     1     -54.844 -58.381 -48.398  0.00  0.00    +0.000 HD
ENDBRANCH  19  20
ENDBRANCH  17  19
ENDBRANCH  15  16
ENDBRANCH  14  15
ENDBRANCH   1  13
TORSDOF 5
ENDMDL
MODEL 7
REMARK VINA RESULT:      -4.4     47.119     49.039
REMARK  Name = 85668777_Hyaluronidase.pdbqt.pdb
REMARK  5 active torsions:
REMARK  status: ('A' for Active; 'I' for Inactive)
REMARK    1  A    between atoms: N_1  and  C_13
REMARK    2  A    between atoms: C_14  and  C_15
REMARK    3  A    between atoms: C_15  and  C_16
REMARK    4  A    between atoms: C_17  and  C_19
REMARK    5  A    between atoms: C_19  and  O_20
REMARK                            x       y       z     vdW  Elec       q    Type
REMARK                         _______ _______ _______ _____ _____    ______ ____
ROOT
ATOM      1  N   UNL     1     -64.458 -54.231 -17.526  0.00  0.00    +0.000 N 
ATOM      2  C   UNL     1     -63.275 -55.772 -16.082  0.00  0.00    +0.000 C 
ATOM      3  C   UNL     1     -62.460 -55.383 -17.315  0.00  0.00    +0.000 A 
ATOM      4  C   UNL     1     -64.592 -54.940 -16.331  0.00  0.00    +0.000 C 
ATOM      5  C   UNL     1     -63.206 -54.487 -18.110  0.00  0.00    +0.000 A 
ATOM      6  C   UNL     1     -63.531 -57.312 -16.103  0.00  0.00    +0.000 C 
ATOM      7  C   UNL     1     -62.513 -55.308 -14.799  0.00  0.00    +0.000 C 
ATOM      8  C   UNL     1     -61.187 -55.783 -17.695  0.00  0.00    +0.000 A 
ATOM      9  C   UNL     1     -62.688 -53.983 -19.290  0.00  0.00    +0.000 A 
ATOM     10  C   UNL     1     -65.714 -54.854 -15.587  0.00  0.00    +0.000 C 
ATOM     11  C   UNL     1     -60.666 -55.274 -18.884  0.00  0.00    +0.000 A 
ATOM     12  C   UNL     1     -61.408 -54.384 -19.671  0.00  0.00    +0.000 A 
ENDROOT
BRANCH   1  13
ATOM     13  C   UNL     1     -65.444 -53.352 -18.106  0.00  0.00    +0.000 C 
ATOM     14  C   UNL     1     -66.491 -52.415 -18.716  0.00  0.00    +0.000 C 
BRANCH  14  15
ATOM     15  C   UNL     1     -67.539 -51.479 -19.326  0.00  0.00    +0.000 C 
BRANCH  15  16
ATOM     16  C   UNL     1     -68.586 -50.542 -19.935  0.00  0.00    +0.000 C 
ATOM     17  C   UNL     1     -69.633 -49.605 -20.544  0.00  0.00    +0.000 C 
BRANCH  17  19
ATOM     18  O   UNL     1     -71.374 -49.065 -22.005  0.00  0.00    +0.000 OA
ATOM     19  C   UNL     1     -70.614 -48.731 -21.113  0.00  0.00    +0.000 C 
BRANCH  19  20
ATOM     20  O   UNL     1     -70.626 -47.498 -20.576  0.00  0.00    +0.000 OA
ATOM     21  H   UNL     1     -71.184 -46.982 -21.193  0.00  0.00    +0.000 HD
ENDBRANCH  19  20
ENDBRANCH  17  19
ENDBRANCH  15  16
ENDBRANCH  14  15
ENDBRANCH   1  13
TORSDOF 5
ENDMDL
MODEL 8
REMARK VINA RESULT:      -4.4     11.940     14.609
REMARK  Name = 85668777_Hyaluronidase.pdbqt.pdb
REMARK  5 active torsions:
REMARK  status: ('A' for Active; 'I' for Inactive)
REMARK    1  A    between atoms: N_1  and  C_13
REMARK    2  A    between atoms: C_14  and  C_15
REMARK    3  A    between atoms: C_15  and  C_16
REMARK    4  A    between atoms: C_17  and  C_19
REMARK    5  A    between atoms: C_19  and  O_20
REMARK                            x       y       z     vdW  Elec       q    Type
REMARK                         _______ _______ _______ _____ _____    ______ ____
ROOT
ATOM      1  N   UNL     1     -49.721 -60.070 -79.615  0.00  0.00    +0.000 N 
ATOM      2  C   UNL     1     -48.945 -58.521 -81.305  0.00  0.00    +0.000 C 
ATOM      3  C   UNL     1     -48.336 -59.914 -81.464  0.00  0.00    +0.000 A 
ATOM      4  C   UNL     1     -49.857 -58.746 -80.037  0.00  0.00    +0.000 C 
ATOM      5  C   UNL     1     -48.828 -60.762 -80.450  0.00  0.00    +0.000 A 
ATOM      6  C   UNL     1     -47.804 -57.489 -81.042  0.00  0.00    +0.000 C 
ATOM      7  C   UNL     1     -49.779 -58.181 -82.582  0.00  0.00    +0.000 C 
ATOM      8  C   UNL     1     -47.434 -60.380 -82.410  0.00  0.00    +0.000 A 
ATOM      9  C   UNL     1     -48.427 -62.084 -80.372  0.00  0.00    +0.000 A 
ATOM     10  C   UNL     1     -50.665 -57.883 -79.389  0.00  0.00    +0.000 C 
ATOM     11  C   UNL     1     -47.030 -61.713 -82.329  0.00  0.00    +0.000 A 
ATOM     12  C   UNL     1     -47.521 -62.554 -81.323  0.00  0.00    +0.000 A 
ENDROOT
BRANCH   1  13
ATOM     13  C   UNL     1     -50.391 -60.673 -78.488  0.00  0.00    +0.000 C 
ATOM     14  C   UNL     1     -51.103 -61.317 -77.295  0.00  0.00    +0.000 C 
BRANCH  14  15
ATOM     15  C   UNL     1     -51.816 -61.962 -76.102  0.00  0.00    +0.000 C 
BRANCH  15  16
ATOM     16  C   UNL     1     -52.529 -62.606 -74.910  0.00  0.00    +0.000 C 
ATOM     17  C   UNL     1     -53.243 -63.251 -73.718  0.00  0.00    +0.000 C 
BRANCH  17  19
ATOM     18  O   UNL     1     -53.326 -64.250 -71.608  0.00  0.00    +0.000 OA
ATOM     19  C   UNL     1     -53.908 -63.855 -72.603  0.00  0.00    +0.000 C 
BRANCH  19  20
ATOM     20  O   UNL     1     -55.241 -63.950 -72.747  0.00  0.00    +0.000 OA
ATOM     21  H   UNL     1     -55.469 -64.766 -72.257  0.00  0.00    +0.000 HD
ENDBRANCH  19  20
ENDBRANCH  17  19
ENDBRANCH  15  16
ENDBRANCH  14  15
ENDBRANCH   1  13
TORSDOF 5
ENDMDL
MODEL 9
REMARK VINA RESULT:      -4.4      6.493      8.341
REMARK  Name = 85668777_Hyaluronidase.pdbqt.pdb
REMARK  5 active torsions:
REMARK  status: ('A' for Active; 'I' for Inactive)
REMARK    1  A    between atoms: N_1  and  C_13
REMARK    2  A    between atoms: C_14  and  C_15
REMARK    3  A    between atoms: C_15  and  C_16
REMARK    4  A    between atoms: C_17  and  C_19
REMARK    5  A    between atoms: C_19  and  O_20
REMARK                            x       y       z     vdW  Elec       q    Type
REMARK                         _______ _______ _______ _____ _____    ______ ____
ROOT
ATOM      1  N   UNL     1     -52.210 -56.445 -67.723  0.00  0.00    +0.000 N 
ATOM      2  C   UNL     1     -51.654 -57.334 -69.905  0.00  0.00    +0.000 C 
ATOM      3  C   UNL     1     -53.157 -57.357 -69.629  0.00  0.00    +0.000 A 
ATOM      4  C   UNL     1     -51.122 -56.703 -68.560  0.00  0.00    +0.000 C 
ATOM      5  C   UNL     1     -53.410 -56.828 -68.346  0.00  0.00    +0.000 A 
ATOM      6  C   UNL     1     -51.150 -58.797 -70.115  0.00  0.00    +0.000 C 
ATOM      7  C   UNL     1     -51.375 -56.420 -71.141  0.00  0.00    +0.000 C 
ATOM      8  C   UNL     1     -54.196 -57.804 -70.435  0.00  0.00    +0.000 A 
ATOM      9  C   UNL     1     -54.700 -56.739 -67.855  0.00  0.00    +0.000 A 
ATOM     10  C   UNL     1     -49.861 -56.418 -68.178  0.00  0.00    +0.000 C 
ATOM     11  C   UNL     1     -55.495 -57.713 -69.939  0.00  0.00    +0.000 A 
ATOM     12  C   UNL     1     -55.745 -57.186 -68.664  0.00  0.00    +0.000 A 
ENDROOT
BRANCH   1  13
ATOM     13  C   UNL     1     -52.145 -55.868 -66.402  0.00  0.00    +0.000 C 
ATOM     14  C   UNL     1     -52.072 -55.255 -65.000  0.00  0.00    +0.000 C 
BRANCH  14  15
ATOM     15  C   UNL     1     -51.997 -54.642 -63.599  0.00  0.00    +0.000 C 
BRANCH  15  16
ATOM     16  C   UNL     1     -51.921 -54.029 -62.198  0.00  0.00    +0.000 C 
ATOM     17  C   UNL     1     -51.845 -53.416 -60.796  0.00  0.00    +0.000 C 
BRANCH  17  19
ATOM     18  O   UNL     1     -52.707 -52.274 -58.949  0.00  0.00    +0.000 OA
ATOM     19  C   UNL     1     -51.772 -52.843 -59.486  0.00  0.00    +0.000 C 
BRANCH  19  20
ATOM     20  O   UNL     1     -50.574 -52.984 -58.892  0.00  0.00    +0.000 OA
ATOM     21  H   UNL     1     -50.290 -53.882 -59.155  0.00  0.00    +0.000 HD
ENDBRANCH  19  20
ENDBRANCH  17  19
ENDBRANCH  15  16
ENDBRANCH  14  15
ENDBRANCH   1  13
TORSDOF 5
ENDMDL
