MODEL 1
REMARK VINA RESULT:      -4.5      0.000      0.000
REMARK  Name = 86311066_OplopantriolA.pdbqt.pdb
REMARK  12 active torsions:
REMARK  status: ('A' for Active; 'I' for Inactive)
REMARK    1  A    between atoms: C_1  and  C_3
REMARK    2  A    between atoms: C_2  and  C_13
REMARK    3  A    between atoms: C_4  and  C_5
REMARK    4  A    between atoms: C_6  and  C_7
REMARK    5  A    between atoms: C_8  and  C_9
REMARK    6  A    between atoms: C_10  and  O_11
REMARK    7  A    between atoms: C_13  and  O_14
REMARK    8  A    between atoms: C_13  and  C_16
REMARK    9  A    between atoms: C_17  and  C_18
REMARK   10  A    between atoms: C_19  and  C_20
REMARK   11  A    between atoms: C_20  and  C_21
REMARK   12  A    between atoms: C_20  and  O_23
REMARK                            x       y       z     vdW  Elec       q    Type
REMARK                         _______ _______ _______ _____ _____    ______ ____
ROOT
ATOM      1  C   UNL     1     -71.740 -57.393 -28.236  0.00  0.00    +0.000 C 
ATOM      2  C   UNL     1     -72.179 -57.466 -27.120  0.00  0.00    +0.000 C 
ENDROOT
BRANCH   1   3
ATOM      3  C   UNL     1     -71.181 -57.301 -29.658  0.00  0.00    +0.000 C 
ATOM      4  C   UNL     1     -70.622 -57.209 -31.081  0.00  0.00    +0.000 C 
BRANCH   4   5
ATOM      5  C   UNL     1     -70.062 -57.119 -32.504  0.00  0.00    +0.000 C 
ATOM      6  C   UNL     1     -69.503 -57.030 -33.927  0.00  0.00    +0.000 C 
BRANCH   6   7
ATOM      7  C   UNL     1     -68.943 -56.941 -35.350  0.00  0.00    +0.000 C 
ATOM      8  C   UNL     1     -68.383 -56.851 -36.773  0.00  0.00    +0.000 C 
BRANCH   8   9
ATOM      9  C   UNL     1     -67.824 -56.760 -38.196  0.00  0.00    +0.000 C 
ATOM     10  C   UNL     1     -67.265 -56.669 -39.619  0.00  0.00    +0.000 C 
BRANCH  10  11
ATOM     11  O   UNL     1     -66.779 -56.590 -40.852  0.00  0.00    +0.000 OA
ATOM     12  H   UNL     1     -66.079 -55.917 -40.897  0.00  0.00    +0.000 HD
ENDBRANCH  10  11
ENDBRANCH   8   9
ENDBRANCH   6   7
ENDBRANCH   4   5
ENDBRANCH   1   3
BRANCH   2  13
ATOM     13  C   UNL     1     -72.695 -57.550 -25.804  0.00  0.00    +0.000 C 
BRANCH  13  14
ATOM     14  O   UNL     1     -73.510 -56.527 -25.374  0.00  0.00    +0.000 OA
ATOM     15  H   UNL     1     -74.323 -56.866 -24.962  0.00  0.00    +0.000 HD
ENDBRANCH  13  14
BRANCH  13  16
ATOM     16  C   UNL     1     -72.419 -58.622 -24.917  0.00  0.00    +0.000 C 
ATOM     17  C   UNL     1     -72.184 -59.529 -24.166  0.00  0.00    +0.000 C 
BRANCH  17  18
ATOM     18  C   UNL     1     -71.883 -60.684 -23.208  0.00  0.00    +0.000 C 
ATOM     19  C   UNL     1     -71.648 -61.591 -22.456  0.00  0.00    +0.000 C 
BRANCH  19  20
ATOM     20  C   UNL     1     -71.369 -62.662 -21.566  0.00  0.00    +0.000 C 
BRANCH  20  21
ATOM     21  C   UNL     1     -70.060 -62.973 -21.103  0.00  0.00    +0.000 C 
ATOM     22  C   UNL     1     -68.827 -63.259 -20.682  0.00  0.00    +0.000 C 
ENDBRANCH  20  21
BRANCH  20  23
ATOM     23  O   UNL     1     -72.422 -63.440 -21.130  0.00  0.00    +0.000 OA
ATOM     24  H   UNL     1     -73.268 -62.962 -21.172  0.00  0.00    +0.000 HD
ENDBRANCH  20  23
ENDBRANCH  19  20
ENDBRANCH  17  18
ENDBRANCH  13  16
ENDBRANCH   2  13
TORSDOF 12
ENDMDL
MODEL 2
REMARK VINA RESULT:      -4.4      3.666      4.848
REMARK  Name = 86311066_OplopantriolA.pdbqt.pdb
REMARK  12 active torsions:
REMARK  status: ('A' for Active; 'I' for Inactive)
REMARK    1  A    between atoms: C_1  and  C_3
REMARK    2  A    between atoms: C_2  and  C_13
REMARK    3  A    between atoms: C_4  and  C_5
REMARK    4  A    between atoms: C_6  and  C_7
REMARK    5  A    between atoms: C_8  and  C_9
REMARK    6  A    between atoms: C_10  and  O_11
REMARK    7  A    between atoms: C_13  and  O_14
REMARK    8  A    between atoms: C_13  and  C_16
REMARK    9  A    between atoms: C_17  and  C_18
REMARK   10  A    between atoms: C_19  and  C_20
REMARK   11  A    between atoms: C_20  and  C_21
REMARK   12  A    between atoms: C_20  and  O_23
REMARK                            x       y       z     vdW  Elec       q    Type
REMARK                         _______ _______ _______ _____ _____    ______ ____
ROOT
ATOM      1  C   UNL     1     -72.612 -58.627 -27.326  0.00  0.00    +0.000 C 
ATOM      2  C   UNL     1     -73.100 -58.827 -26.247  0.00  0.00    +0.000 C 
ENDROOT
BRANCH   1   3
ATOM      3  C   UNL     1     -71.990 -58.375 -28.702  0.00  0.00    +0.000 C 
ATOM      4  C   UNL     1     -71.367 -58.121 -30.078  0.00  0.00    +0.000 C 
BRANCH   4   5
ATOM      5  C   UNL     1     -70.746 -57.866 -31.455  0.00  0.00    +0.000 C 
ATOM      6  C   UNL     1     -70.122 -57.613 -32.831  0.00  0.00    +0.000 C 
BRANCH   6   7
ATOM      7  C   UNL     1     -69.500 -57.359 -34.207  0.00  0.00    +0.000 C 
ATOM      8  C   UNL     1     -68.877 -57.105 -35.583  0.00  0.00    +0.000 C 
BRANCH   8   9
ATOM      9  C   UNL     1     -68.253 -56.852 -36.959  0.00  0.00    +0.000 C 
ATOM     10  C   UNL     1     -67.628 -56.598 -38.334  0.00  0.00    +0.000 C 
BRANCH  10  11
ATOM     11  O   UNL     1     -67.086 -56.379 -39.526  0.00  0.00    +0.000 OA
ATOM     12  H   UNL     1     -66.596 -57.163 -39.825  0.00  0.00    +0.000 HD
ENDBRANCH  10  11
ENDBRANCH   8   9
ENDBRANCH   6   7
ENDBRANCH   4   5
ENDBRANCH   1   3
BRANCH   2  13
ATOM     13  C   UNL     1     -73.674 -59.062 -24.974  0.00  0.00    +0.000 C 
BRANCH  13  14
ATOM     14  O   UNL     1     -74.407 -60.215 -24.810  0.00  0.00    +0.000 OA
ATOM     15  H   UNL     1     -73.961 -60.840 -24.214  0.00  0.00    +0.000 HD
ENDBRANCH  13  14
BRANCH  13  16
ATOM     16  C   UNL     1     -73.534 -58.179 -23.872  0.00  0.00    +0.000 C 
ATOM     17  C   UNL     1     -73.414 -57.432 -22.940  0.00  0.00    +0.000 C 
BRANCH  17  18
ATOM     18  C   UNL     1     -73.260 -56.479 -21.752  0.00  0.00    +0.000 C 
ATOM     19  C   UNL     1     -73.138 -55.731 -20.820  0.00  0.00    +0.000 C 
BRANCH  19  20
ATOM     20  C   UNL     1     -72.994 -54.848 -19.718  0.00  0.00    +0.000 C 
BRANCH  20  21
ATOM     21  C   UNL     1     -72.843 -53.440 -19.859  0.00  0.00    +0.000 C 
ATOM     22  C   UNL     1     -72.701 -52.118 -19.976  0.00  0.00    +0.000 C 
ENDBRANCH  20  21
BRANCH  20  23
ATOM     23  O   UNL     1     -72.999 -55.382 -18.445  0.00  0.00    +0.000 OA
ATOM     24  H   UNL     1     -73.903 -55.492 -18.102  0.00  0.00    +0.000 HD
ENDBRANCH  20  23
ENDBRANCH  19  20
ENDBRANCH  17  18
ENDBRANCH  13  16
ENDBRANCH   2  13
TORSDOF 12
ENDMDL
MODEL 3
REMARK VINA RESULT:      -4.1     13.822     27.301
REMARK  Name = 86311066_OplopantriolA.pdbqt.pdb
REMARK  12 active torsions:
REMARK  status: ('A' for Active; 'I' for Inactive)
REMARK    1  A    between atoms: C_1  and  C_3
REMARK    2  A    between atoms: C_2  and  C_13
REMARK    3  A    between atoms: C_4  and  C_5
REMARK    4  A    between atoms: C_6  and  C_7
REMARK    5  A    between atoms: C_8  and  C_9
REMARK    6  A    between atoms: C_10  and  O_11
REMARK    7  A    between atoms: C_13  and  O_14
REMARK    8  A    between atoms: C_13  and  C_16
REMARK    9  A    between atoms: C_17  and  C_18
REMARK   10  A    between atoms: C_19  and  C_20
REMARK   11  A    between atoms: C_20  and  C_21
REMARK   12  A    between atoms: C_20  and  O_23
REMARK                            x       y       z     vdW  Elec       q    Type
REMARK                         _______ _______ _______ _____ _____    ______ ____
ROOT
ATOM      1  C   UNL     1     -60.809 -57.418 -50.312  0.00  0.00    +0.000 C 
ATOM      2  C   UNL     1     -60.173 -57.516 -51.327  0.00  0.00    +0.000 C 
ENDROOT
BRANCH   1   3
ATOM      3  C   UNL     1     -61.621 -57.293 -49.020  0.00  0.00    +0.000 C 
ATOM      4  C   UNL     1     -62.432 -57.168 -47.727  0.00  0.00    +0.000 C 
BRANCH   4   5
ATOM      5  C   UNL     1     -63.244 -57.044 -46.434  0.00  0.00    +0.000 C 
ATOM      6  C   UNL     1     -64.057 -56.918 -45.142  0.00  0.00    +0.000 C 
BRANCH   6   7
ATOM      7  C   UNL     1     -64.869 -56.793 -43.849  0.00  0.00    +0.000 C 
ATOM      8  C   UNL     1     -65.681 -56.667 -42.557  0.00  0.00    +0.000 C 
BRANCH   8   9
ATOM      9  C   UNL     1     -66.491 -56.542 -41.263  0.00  0.00    +0.000 C 
ATOM     10  C   UNL     1     -67.302 -56.417 -39.969  0.00  0.00    +0.000 C 
BRANCH  10  11
ATOM     11  O   UNL     1     -68.004 -56.308 -38.848  0.00  0.00    +0.000 OA
ATOM     12  H   UNL     1     -67.447 -55.959 -38.132  0.00  0.00    +0.000 HD
ENDBRANCH  10  11
ENDBRANCH   8   9
ENDBRANCH   6   7
ENDBRANCH   4   5
ENDBRANCH   1   3
BRANCH   2  13
ATOM     13  C   UNL     1     -59.422 -57.631 -52.522  0.00  0.00    +0.000 C 
BRANCH  13  14
ATOM     14  O   UNL     1     -58.134 -58.103 -52.421  0.00  0.00    +0.000 OA
ATOM     15  H   UNL     1     -58.071 -59.034 -52.693  0.00  0.00    +0.000 HD
ENDBRANCH  13  14
BRANCH  13  16
ATOM     16  C   UNL     1     -59.926 -57.287 -53.803  0.00  0.00    +0.000 C 
ATOM     17  C   UNL     1     -60.352 -56.997 -54.887  0.00  0.00    +0.000 C 
BRANCH  17  18
ATOM     18  C   UNL     1     -60.898 -56.627 -56.269  0.00  0.00    +0.000 C 
ATOM     19  C   UNL     1     -61.327 -56.338 -57.353  0.00  0.00    +0.000 C 
BRANCH  19  20
ATOM     20  C   UNL     1     -61.834 -55.995 -58.634  0.00  0.00    +0.000 C 
BRANCH  20  21
ATOM     21  C   UNL     1     -61.032 -55.440 -59.670  0.00  0.00    +0.000 C 
ATOM     22  C   UNL     1     -60.285 -54.906 -60.638  0.00  0.00    +0.000 C 
ENDBRANCH  20  21
BRANCH  20  23
ATOM     23  O   UNL     1     -63.174 -56.211 -58.886  0.00  0.00    +0.000 OA
ATOM     24  H   UNL     1     -63.334 -57.094 -59.261  0.00  0.00    +0.000 HD
ENDBRANCH  20  23
ENDBRANCH  19  20
ENDBRANCH  17  18
ENDBRANCH  13  16
ENDBRANCH   2  13
TORSDOF 12
ENDMDL
MODEL 4
REMARK VINA RESULT:      -4.1      4.355     15.067
REMARK  Name = 86311066_OplopantriolA.pdbqt.pdb
REMARK  12 active torsions:
REMARK  status: ('A' for Active; 'I' for Inactive)
REMARK    1  A    between atoms: C_1  and  C_3
REMARK    2  A    between atoms: C_2  and  C_13
REMARK    3  A    between atoms: C_4  and  C_5
REMARK    4  A    between atoms: C_6  and  C_7
REMARK    5  A    between atoms: C_8  and  C_9
REMARK    6  A    between atoms: C_10  and  O_11
REMARK    7  A    between atoms: C_13  and  O_14
REMARK    8  A    between atoms: C_13  and  C_16
REMARK    9  A    between atoms: C_17  and  C_18
REMARK   10  A    between atoms: C_19  and  C_20
REMARK   11  A    between atoms: C_20  and  C_21
REMARK   12  A    between atoms: C_20  and  O_23
REMARK                            x       y       z     vdW  Elec       q    Type
REMARK                         _______ _______ _______ _____ _____    ______ ____
ROOT
ATOM      1  C   UNL     1     -69.064 -57.992 -33.296  0.00  0.00    +0.000 C 
ATOM      2  C   UNL     1     -68.468 -58.163 -34.324  0.00  0.00    +0.000 C 
ENDROOT
BRANCH   1   3
ATOM      3  C   UNL     1     -69.825 -57.776 -31.985  0.00  0.00    +0.000 C 
ATOM      4  C   UNL     1     -70.586 -57.558 -30.674  0.00  0.00    +0.000 C 
BRANCH   4   5
ATOM      5  C   UNL     1     -71.347 -57.340 -29.363  0.00  0.00    +0.000 C 
ATOM      6  C   UNL     1     -72.107 -57.124 -28.051  0.00  0.00    +0.000 C 
BRANCH   6   7
ATOM      7  C   UNL     1     -72.868 -56.907 -26.739  0.00  0.00    +0.000 C 
ATOM      8  C   UNL     1     -73.629 -56.690 -25.427  0.00  0.00    +0.000 C 
BRANCH   8   9
ATOM      9  C   UNL     1     -74.390 -56.474 -24.116  0.00  0.00    +0.000 C 
ATOM     10  C   UNL     1     -75.152 -56.257 -22.805  0.00  0.00    +0.000 C 
BRANCH  10  11
ATOM     11  O   UNL     1     -75.812 -56.070 -21.669  0.00  0.00    +0.000 OA
ATOM     12  H   UNL     1     -76.038 -56.925 -21.264  0.00  0.00    +0.000 HD
ENDBRANCH  10  11
ENDBRANCH   8   9
ENDBRANCH   6   7
ENDBRANCH   4   5
ENDBRANCH   1   3
BRANCH   2  13
ATOM     13  C   UNL     1     -67.765 -58.365 -35.538  0.00  0.00    +0.000 C 
BRANCH  13  14
ATOM     14  O   UNL     1     -67.057 -59.537 -35.676  0.00  0.00    +0.000 OA
ATOM     15  H   UNL     1     -67.499 -60.277 -35.227  0.00  0.00    +0.000 HD
ENDBRANCH  13  14
BRANCH  13  16
ATOM     16  C   UNL     1     -67.755 -57.431 -36.606  0.00  0.00    +0.000 C 
ATOM     17  C   UNL     1     -67.746 -56.640 -37.509  0.00  0.00    +0.000 C 
BRANCH  17  18
ATOM     18  C   UNL     1     -67.732 -55.632 -38.661  0.00  0.00    +0.000 C 
ATOM     19  C   UNL     1     -67.721 -54.841 -39.564  0.00  0.00    +0.000 C 
BRANCH  19  20
ATOM     20  C   UNL     1     -67.708 -53.905 -40.632  0.00  0.00    +0.000 C 
BRANCH  20  21
ATOM     21  C   UNL     1     -68.845 -53.627 -41.441  0.00  0.00    +0.000 C 
ATOM     22  C   UNL     1     -69.918 -53.380 -42.196  0.00  0.00    +0.000 C 
ENDBRANCH  20  21
BRANCH  20  23
ATOM     23  O   UNL     1     -66.533 -53.232 -40.899  0.00  0.00    +0.000 OA
ATOM     24  H   UNL     1     -66.390 -53.117 -41.854  0.00  0.00    +0.000 HD
ENDBRANCH  20  23
ENDBRANCH  19  20
ENDBRANCH  17  18
ENDBRANCH  13  16
ENDBRANCH   2  13
TORSDOF 12
ENDMDL
MODEL 5
REMARK VINA RESULT:      -4.0     12.743     23.769
REMARK  Name = 86311066_OplopantriolA.pdbqt.pdb
REMARK  12 active torsions:
REMARK  status: ('A' for Active; 'I' for Inactive)
REMARK    1  A    between atoms: C_1  and  C_3
REMARK    2  A    between atoms: C_2  and  C_13
REMARK    3  A    between atoms: C_4  and  C_5
REMARK    4  A    between atoms: C_6  and  C_7
REMARK    5  A    between atoms: C_8  and  C_9
REMARK    6  A    between atoms: C_10  and  O_11
REMARK    7  A    between atoms: C_13  and  O_14
REMARK    8  A    between atoms: C_13  and  C_16
REMARK    9  A    between atoms: C_17  and  C_18
REMARK   10  A    between atoms: C_19  and  C_20
REMARK   11  A    between atoms: C_20  and  C_21
REMARK   12  A    between atoms: C_20  and  O_23
REMARK                            x       y       z     vdW  Elec       q    Type
REMARK                         _______ _______ _______ _____ _____    ______ ____
ROOT
ATOM      1  C   UNL     1     -61.728 -45.871 -41.206  0.00  0.00    +0.000 C 
ATOM      2  C   UNL     1     -61.079 -45.511 -42.151  0.00  0.00    +0.000 C 
ENDROOT
BRANCH   1   3
ATOM      3  C   UNL     1     -62.555 -46.329 -40.002  0.00  0.00    +0.000 C 
ATOM      4  C   UNL     1     -63.383 -46.787 -38.798  0.00  0.00    +0.000 C 
BRANCH   4   5
ATOM      5  C   UNL     1     -64.211 -47.244 -37.593  0.00  0.00    +0.000 C 
ATOM      6  C   UNL     1     -65.038 -47.699 -36.387  0.00  0.00    +0.000 C 
BRANCH   6   7
ATOM      7  C   UNL     1     -65.865 -48.156 -35.181  0.00  0.00    +0.000 C 
ATOM      8  C   UNL     1     -66.692 -48.612 -33.975  0.00  0.00    +0.000 C 
BRANCH   8   9
ATOM      9  C   UNL     1     -67.520 -49.069 -32.770  0.00  0.00    +0.000 C 
ATOM     10  C   UNL     1     -68.347 -49.526 -31.565  0.00  0.00    +0.000 C 
BRANCH  10  11
ATOM     11  O   UNL     1     -69.065 -49.921 -30.520  0.00  0.00    +0.000 OA
ATOM     12  H   UNL     1     -68.481 -50.227 -29.805  0.00  0.00    +0.000 HD
ENDBRANCH  10  11
ENDBRANCH   8   9
ENDBRANCH   6   7
ENDBRANCH   4   5
ENDBRANCH   1   3
BRANCH   2  13
ATOM     13  C   UNL     1     -60.314 -45.086 -43.265  0.00  0.00    +0.000 C 
BRANCH  13  14
ATOM     14  O   UNL     1     -59.138 -44.419 -43.011  0.00  0.00    +0.000 OA
ATOM     15  H   UNL     1     -58.642 -44.831 -42.284  0.00  0.00    +0.000 HD
ENDBRANCH  13  14
BRANCH  13  16
ATOM     16  C   UNL     1     -60.695 -45.311 -44.613  0.00  0.00    +0.000 C 
ATOM     17  C   UNL     1     -61.018 -45.502 -45.753  0.00  0.00    +0.000 C 
BRANCH  17  18
ATOM     18  C   UNL     1     -61.429 -45.747 -47.207  0.00  0.00    +0.000 C 
ATOM     19  C   UNL     1     -61.752 -45.939 -48.348  0.00  0.00    +0.000 C 
BRANCH  19  20
ATOM     20  C   UNL     1     -62.133 -46.167 -49.697  0.00  0.00    +0.000 C 
BRANCH  20  21
ATOM     21  C   UNL     1     -61.480 -45.560 -50.806  0.00  0.00    +0.000 C 
ATOM     22  C   UNL     1     -60.855 -44.988 -51.837  0.00  0.00    +0.000 C 
ENDBRANCH  20  21
BRANCH  20  23
ATOM     23  O   UNL     1     -63.191 -47.019 -49.944  0.00  0.00    +0.000 OA
ATOM     24  H   UNL     1     -62.928 -47.952 -49.871  0.00  0.00    +0.000 HD
ENDBRANCH  20  23
ENDBRANCH  19  20
ENDBRANCH  17  18
ENDBRANCH  13  16
ENDBRANCH   2  13
TORSDOF 12
ENDMDL
MODEL 6
REMARK VINA RESULT:      -4.0      4.783      6.272
REMARK  Name = 86311066_OplopantriolA.pdbqt.pdb
REMARK  12 active torsions:
REMARK  status: ('A' for Active; 'I' for Inactive)
REMARK    1  A    between atoms: C_1  and  C_3
REMARK    2  A    between atoms: C_2  and  C_13
REMARK    3  A    between atoms: C_4  and  C_5
REMARK    4  A    between atoms: C_6  and  C_7
REMARK    5  A    between atoms: C_8  and  C_9
REMARK    6  A    between atoms: C_10  and  O_11
REMARK    7  A    between atoms: C_13  and  O_14
REMARK    8  A    between atoms: C_13  and  C_16
REMARK    9  A    between atoms: C_17  and  C_18
REMARK   10  A    between atoms: C_19  and  C_20
REMARK   11  A    between atoms: C_20  and  C_21
REMARK   12  A    between atoms: C_20  and  O_23
REMARK                            x       y       z     vdW  Elec       q    Type
REMARK                         _______ _______ _______ _____ _____    ______ ____
ROOT
ATOM      1  C   UNL     1     -72.773 -57.441 -25.759  0.00  0.00    +0.000 C 
ATOM      2  C   UNL     1     -73.238 -57.494 -24.652  0.00  0.00    +0.000 C 
ENDROOT
BRANCH   1   3
ATOM      3  C   UNL     1     -72.180 -57.375 -27.168  0.00  0.00    +0.000 C 
ATOM      4  C   UNL     1     -71.588 -57.309 -28.579  0.00  0.00    +0.000 C 
BRANCH   4   5
ATOM      5  C   UNL     1     -70.996 -57.244 -29.991  0.00  0.00    +0.000 C 
ATOM      6  C   UNL     1     -70.406 -57.179 -31.403  0.00  0.00    +0.000 C 
BRANCH   6   7
ATOM      7  C   UNL     1     -69.815 -57.114 -32.814  0.00  0.00    +0.000 C 
ATOM      8  C   UNL     1     -69.224 -57.050 -34.226  0.00  0.00    +0.000 C 
BRANCH   8   9
ATOM      9  C   UNL     1     -68.633 -56.984 -35.638  0.00  0.00    +0.000 C 
ATOM     10  C   UNL     1     -68.042 -56.917 -37.049  0.00  0.00    +0.000 C 
BRANCH  10  11
ATOM     11  O   UNL     1     -67.529 -56.860 -38.272  0.00  0.00    +0.000 OA
ATOM     12  H   UNL     1     -67.564 -57.735 -38.695  0.00  0.00    +0.000 HD
ENDBRANCH  10  11
ENDBRANCH   8   9
ENDBRANCH   6   7
ENDBRANCH   4   5
ENDBRANCH   1   3
BRANCH   2  13
ATOM     13  C   UNL     1     -73.786 -57.556 -23.347  0.00  0.00    +0.000 C 
BRANCH  13  14
ATOM     14  O   UNL     1     -74.436 -58.713 -22.985  0.00  0.00    +0.000 OA
ATOM     15  H   UNL     1     -75.095 -58.977 -23.649  0.00  0.00    +0.000 HD
ENDBRANCH  13  14
BRANCH  13  16
ATOM     16  C   UNL     1     -73.698 -56.498 -22.406  0.00  0.00    +0.000 C 
ATOM     17  C   UNL     1     -73.625 -55.602 -21.610  0.00  0.00    +0.000 C 
BRANCH  17  18
ATOM     18  C   UNL     1     -73.533 -54.462 -20.593  0.00  0.00    +0.000 C 
ATOM     19  C   UNL     1     -73.462 -53.567 -19.796  0.00  0.00    +0.000 C 
BRANCH  19  20
ATOM     20  C   UNL     1     -73.376 -52.510 -18.852  0.00  0.00    +0.000 C 
BRANCH  20  21
ATOM     21  C   UNL     1     -72.501 -51.398 -19.000  0.00  0.00    +0.000 C 
ATOM     22  C   UNL     1     -71.676 -50.360 -19.154  0.00  0.00    +0.000 C 
ENDBRANCH  20  21
BRANCH  20  23
ATOM     23  O   UNL     1     -74.183 -52.564 -17.733  0.00  0.00    +0.000 OA
ATOM     24  H   UNL     1     -74.696 -51.746 -17.616  0.00  0.00    +0.000 HD
ENDBRANCH  20  23
ENDBRANCH  19  20
ENDBRANCH  17  18
ENDBRANCH  13  16
ENDBRANCH   2  13
TORSDOF 12
ENDMDL
MODEL 7
REMARK VINA RESULT:      -3.9     36.952     49.529
REMARK  Name = 86311066_OplopantriolA.pdbqt.pdb
REMARK  12 active torsions:
REMARK  status: ('A' for Active; 'I' for Inactive)
REMARK    1  A    between atoms: C_1  and  C_3
REMARK    2  A    between atoms: C_2  and  C_13
REMARK    3  A    between atoms: C_4  and  C_5
REMARK    4  A    between atoms: C_6  and  C_7
REMARK    5  A    between atoms: C_8  and  C_9
REMARK    6  A    between atoms: C_10  and  O_11
REMARK    7  A    between atoms: C_13  and  O_14
REMARK    8  A    between atoms: C_13  and  C_16
REMARK    9  A    between atoms: C_17  and  C_18
REMARK   10  A    between atoms: C_19  and  C_20
REMARK   11  A    between atoms: C_20  and  C_21
REMARK   12  A    between atoms: C_20  and  O_23
REMARK                            x       y       z     vdW  Elec       q    Type
REMARK                         _______ _______ _______ _____ _____    ______ ____
ROOT
ATOM      1  C   UNL     1     -64.375 -60.762 -76.858  0.00  0.00    +0.000 C 
ATOM      2  C   UNL     1     -64.115 -60.731 -78.031  0.00  0.00    +0.000 C 
ENDROOT
BRANCH   1   3
ATOM      3  C   UNL     1     -64.706 -60.802 -75.364  0.00  0.00    +0.000 C 
ATOM      4  C   UNL     1     -65.038 -60.842 -73.869  0.00  0.00    +0.000 C 
BRANCH   4   5
ATOM      5  C   UNL     1     -65.368 -60.881 -72.374  0.00  0.00    +0.000 C 
ATOM      6  C   UNL     1     -65.697 -60.919 -70.879  0.00  0.00    +0.000 C 
BRANCH   6   7
ATOM      7  C   UNL     1     -66.026 -60.959 -69.383  0.00  0.00    +0.000 C 
ATOM      8  C   UNL     1     -66.356 -60.998 -67.888  0.00  0.00    +0.000 C 
BRANCH   8   9
ATOM      9  C   UNL     1     -66.686 -61.037 -66.393  0.00  0.00    +0.000 C 
ATOM     10  C   UNL     1     -67.018 -61.076 -64.898  0.00  0.00    +0.000 C 
BRANCH  10  11
ATOM     11  O   UNL     1     -67.304 -61.111 -63.602  0.00  0.00    +0.000 OA
ATOM     12  H   UNL     1     -67.219 -60.224 -63.213  0.00  0.00    +0.000 HD
ENDBRANCH  10  11
ENDBRANCH   8   9
ENDBRANCH   6   7
ENDBRANCH   4   5
ENDBRANCH   1   3
BRANCH   2  13
ATOM     13  C   UNL     1     -63.810 -60.693 -79.413  0.00  0.00    +0.000 C 
BRANCH  13  14
ATOM     14  O   UNL     1     -64.541 -61.506 -80.249  0.00  0.00    +0.000 OA
ATOM     15  H   UNL     1     -64.926 -62.258 -79.769  0.00  0.00    +0.000 HD
ENDBRANCH  13  14
BRANCH  13  16
ATOM     16  C   UNL     1     -62.800 -59.868 -79.973  0.00  0.00    +0.000 C 
ATOM     17  C   UNL     1     -61.946 -59.171 -80.448  0.00  0.00    +0.000 C 
BRANCH  17  18
ATOM     18  C   UNL     1     -60.857 -58.283 -81.056  0.00  0.00    +0.000 C 
ATOM     19  C   UNL     1     -60.003 -57.586 -81.533  0.00  0.00    +0.000 C 
BRANCH  19  20
ATOM     20  C   UNL     1     -58.994 -56.762 -82.097  0.00  0.00    +0.000 C 
BRANCH  20  21
ATOM     21  C   UNL     1     -57.759 -56.483 -81.448  0.00  0.00    +0.000 C 
ATOM     22  C   UNL     1     -56.599 -56.209 -80.848  0.00  0.00    +0.000 C 
ENDBRANCH  20  21
BRANCH  20  23
ATOM     23  O   UNL     1     -59.223 -56.203 -83.338  0.00  0.00    +0.000 OA
ATOM     24  H   UNL     1     -58.476 -55.655 -83.632  0.00  0.00    +0.000 HD
ENDBRANCH  20  23
ENDBRANCH  19  20
ENDBRANCH  17  18
ENDBRANCH  13  16
ENDBRANCH   2  13
TORSDOF 12
ENDMDL
MODEL 8
REMARK VINA RESULT:      -3.9      2.716      4.514
REMARK  Name = 86311066_OplopantriolA.pdbqt.pdb
REMARK  12 active torsions:
REMARK  status: ('A' for Active; 'I' for Inactive)
REMARK    1  A    between atoms: C_1  and  C_3
REMARK    2  A    between atoms: C_2  and  C_13
REMARK    3  A    between atoms: C_4  and  C_5
REMARK    4  A    between atoms: C_6  and  C_7
REMARK    5  A    between atoms: C_8  and  C_9
REMARK    6  A    between atoms: C_10  and  O_11
REMARK    7  A    between atoms: C_13  and  O_14
REMARK    8  A    between atoms: C_13  and  C_16
REMARK    9  A    between atoms: C_17  and  C_18
REMARK   10  A    between atoms: C_19  and  C_20
REMARK   11  A    between atoms: C_20  and  C_21
REMARK   12  A    between atoms: C_20  and  O_23
REMARK                            x       y       z     vdW  Elec       q    Type
REMARK                         _______ _______ _______ _____ _____    ______ ____
ROOT
ATOM      1  C   UNL     1     -70.092 -56.060 -31.996  0.00  0.00    +0.000 C 
ATOM      2  C   UNL     1     -70.438 -55.706 -30.902  0.00  0.00    +0.000 C 
ENDROOT
BRANCH   1   3
ATOM      3  C   UNL     1     -69.652 -56.512 -33.391  0.00  0.00    +0.000 C 
ATOM      4  C   UNL     1     -69.213 -56.963 -34.788  0.00  0.00    +0.000 C 
BRANCH   4   5
ATOM      5  C   UNL     1     -68.774 -57.415 -36.184  0.00  0.00    +0.000 C 
ATOM      6  C   UNL     1     -68.335 -57.869 -37.579  0.00  0.00    +0.000 C 
BRANCH   6   7
ATOM      7  C   UNL     1     -67.896 -58.321 -38.975  0.00  0.00    +0.000 C 
ATOM      8  C   UNL     1     -67.457 -58.774 -40.371  0.00  0.00    +0.000 C 
BRANCH   8   9
ATOM      9  C   UNL     1     -67.018 -59.225 -41.767  0.00  0.00    +0.000 C 
ATOM     10  C   UNL     1     -66.580 -59.677 -43.164  0.00  0.00    +0.000 C 
BRANCH  10  11
ATOM     11  O   UNL     1     -66.199 -60.068 -44.374  0.00  0.00    +0.000 OA
ATOM     12  H   UNL     1     -65.280 -60.384 -44.354  0.00  0.00    +0.000 HD
ENDBRANCH  10  11
ENDBRANCH   8   9
ENDBRANCH   6   7
ENDBRANCH   4   5
ENDBRANCH   1   3
BRANCH   2  13
ATOM     13  C   UNL     1     -70.845 -55.289 -29.611  0.00  0.00    +0.000 C 
BRANCH  13  14
ATOM     14  O   UNL     1     -71.028 -53.940 -29.406  0.00  0.00    +0.000 OA
ATOM     15  H   UNL     1     -71.966 -53.722 -29.276  0.00  0.00    +0.000 HD
ENDBRANCH  13  14
BRANCH  13  16
ATOM     16  C   UNL     1     -71.072 -56.181 -28.531  0.00  0.00    +0.000 C 
ATOM     17  C   UNL     1     -71.263 -56.936 -27.618  0.00  0.00    +0.000 C 
BRANCH  17  18
ATOM     18  C   UNL     1     -71.504 -57.900 -26.454  0.00  0.00    +0.000 C 
ATOM     19  C   UNL     1     -71.694 -58.657 -25.541  0.00  0.00    +0.000 C 
BRANCH  19  20
ATOM     20  C   UNL     1     -71.920 -59.550 -24.460  0.00  0.00    +0.000 C 
BRANCH  20  21
ATOM     21  C   UNL     1     -72.285 -60.914 -24.638  0.00  0.00    +0.000 C 
ATOM     22  C   UNL     1     -72.641 -62.190 -24.798  0.00  0.00    +0.000 C 
ENDBRANCH  20  21
BRANCH  20  23
ATOM     23  O   UNL     1     -71.779 -59.071 -23.174  0.00  0.00    +0.000 OA
ATOM     24  H   UNL     1     -70.930 -59.336 -22.780  0.00  0.00    +0.000 HD
ENDBRANCH  20  23
ENDBRANCH  19  20
ENDBRANCH  17  18
ENDBRANCH  13  16
ENDBRANCH   2  13
TORSDOF 12
ENDMDL
MODEL 9
REMARK VINA RESULT:      -3.9     31.528     39.494
REMARK  Name = 86311066_OplopantriolA.pdbqt.pdb
REMARK  12 active torsions:
REMARK  status: ('A' for Active; 'I' for Inactive)
REMARK    1  A    between atoms: C_1  and  C_3
REMARK    2  A    between atoms: C_2  and  C_13
REMARK    3  A    between atoms: C_4  and  C_5
REMARK    4  A    between atoms: C_6  and  C_7
REMARK    5  A    between atoms: C_8  and  C_9
REMARK    6  A    between atoms: C_10  and  O_11
REMARK    7  A    between atoms: C_13  and  O_14
REMARK    8  A    between atoms: C_13  and  C_16
REMARK    9  A    between atoms: C_17  and  C_18
REMARK   10  A    between atoms: C_19  and  C_20
REMARK   11  A    between atoms: C_20  and  C_21
REMARK   12  A    between atoms: C_20  and  O_23
REMARK                            x       y       z     vdW  Elec       q    Type
REMARK                         _______ _______ _______ _____ _____    ______ ____
ROOT
ATOM      1  C   UNL     1     -57.158 -59.547 -65.564  0.00  0.00    +0.000 C 
ATOM      2  C   UNL     1     -57.906 -59.967 -64.724  0.00  0.00    +0.000 C 
ENDROOT
BRANCH   1   3
ATOM      3  C   UNL     1     -56.203 -59.011 -66.635  0.00  0.00    +0.000 C 
ATOM      4  C   UNL     1     -55.249 -58.475 -67.707  0.00  0.00    +0.000 C 
BRANCH   4   5
ATOM      5  C   UNL     1     -54.295 -57.940 -68.779  0.00  0.00    +0.000 C 
ATOM      6  C   UNL     1     -53.341 -57.407 -69.852  0.00  0.00    +0.000 C 
BRANCH   6   7
ATOM      7  C   UNL     1     -52.386 -56.873 -70.924  0.00  0.00    +0.000 C 
ATOM      8  C   UNL     1     -51.432 -56.339 -71.996  0.00  0.00    +0.000 C 
BRANCH   8   9
ATOM      9  C   UNL     1     -50.479 -55.804 -73.069  0.00  0.00    +0.000 C 
ATOM     10  C   UNL     1     -49.525 -55.269 -74.141  0.00  0.00    +0.000 C 
BRANCH  10  11
ATOM     11  O   UNL     1     -48.698 -54.805 -75.071  0.00  0.00    +0.000 OA
ATOM     12  H   UNL     1     -49.107 -54.870 -75.951  0.00  0.00    +0.000 HD
ENDBRANCH  10  11
ENDBRANCH   8   9
ENDBRANCH   6   7
ENDBRANCH   4   5
ENDBRANCH   1   3
BRANCH   2  13
ATOM     13  C   UNL     1     -58.789 -60.461 -63.733  0.00  0.00    +0.000 C 
BRANCH  13  14
ATOM     14  O   UNL     1     -59.143 -61.789 -63.801  0.00  0.00    +0.000 OA
ATOM     15  H   UNL     1     -59.259 -62.175 -62.917  0.00  0.00    +0.000 HD
ENDBRANCH  13  14
BRANCH  13  16
ATOM     16  C   UNL     1     -59.320 -59.665 -62.685  0.00  0.00    +0.000 C 
ATOM     17  C   UNL     1     -59.771 -58.991 -61.799  0.00  0.00    +0.000 C 
BRANCH  17  18
ATOM     18  C   UNL     1     -60.347 -58.132 -60.671  0.00  0.00    +0.000 C 
ATOM     19  C   UNL     1     -60.799 -57.457 -59.786  0.00  0.00    +0.000 C 
BRANCH  19  20
ATOM     20  C   UNL     1     -61.334 -56.659 -58.741  0.00  0.00    +0.000 C 
BRANCH  20  21
ATOM     21  C   UNL     1     -60.551 -55.757 -57.968  0.00  0.00    +0.000 C 
ATOM     22  C   UNL     1     -59.804 -54.918 -57.247  0.00  0.00    +0.000 C 
ENDBRANCH  20  21
BRANCH  20  23
ATOM     23  O   UNL     1     -62.681 -56.766 -58.459  0.00  0.00    +0.000 OA
ATOM     24  H   UNL     1     -63.112 -57.444 -59.007  0.00  0.00    +0.000 HD
ENDBRANCH  20  23
ENDBRANCH  19  20
ENDBRANCH  17  18
ENDBRANCH  13  16
ENDBRANCH   2  13
TORSDOF 12
ENDMDL
