MODEL 1
REMARK VINA RESULT:      -7.8      0.000      0.000
REMARK  Name = 91746246_sitosterol.pdbqt.pdb
REMARK  10 active torsions:
REMARK  status: ('A' for Active; 'I' for Inactive)
REMARK    1  A    between atoms: C_5  and  C_20
REMARK    2  A    between atoms: C_19  and  O_30
REMARK    3  A    between atoms: C_20  and  C_22
REMARK    4  A    between atoms: C_23  and  C_24
REMARK    5  A    between atoms: C_24  and  C_28
REMARK    6  A    between atoms: O_30  and  C_32
REMARK    7  A    between atoms: C_32  and  C_33
REMARK    8  A    between atoms: C_34  and  C_35
REMARK    9  A    between atoms: C_38  and  O_41
REMARK   10  A    between atoms: C_40  and  O_43
REMARK                            x       y       z     vdW  Elec       q    Type
REMARK                         _______ _______ _______ _____ _____    ______ ____
ROOT
ATOM      1  C   UNL     1     -70.642 -58.478 -32.956  0.00  0.00    +0.000 C 
ATOM      2  C   UNL     1     -70.442 -57.326 -31.834  0.00  0.00    +0.000 C 
ATOM      3  C   UNL     1     -71.060 -57.412 -30.496  0.00  0.00    +0.000 C 
ATOM      4  C   UNL     1     -71.714 -58.634 -29.899  0.00  0.00    +0.000 C 
ATOM      5  C   UNL     1     -69.242 -58.642 -33.534  0.00  0.00    +0.000 C 
ATOM      6  C   UNL     1     -71.143 -59.633 -32.212  0.00  0.00    +0.000 C 
ATOM      7  C   UNL     1     -72.396 -58.651 -28.506  0.00  0.00    +0.000 C 
ATOM      8  C   UNL     1     -69.115 -56.814 -31.982  0.00  0.00    +0.000 C 
ATOM      9  C   UNL     1     -71.672 -59.729 -30.802  0.00  0.00    +0.000 C 
ATOM     10  C   UNL     1     -68.378 -57.641 -33.002  0.00  0.00    +0.000 C 
ATOM     11  C   UNL     1     -70.946 -56.348 -29.568  0.00  0.00    +0.000 C 
ATOM     12  C   UNL     1     -71.625 -57.913 -34.016  0.00  0.00    +0.000 C 
ATOM     13  C   UNL     1     -71.968 -57.389 -27.533  0.00  0.00    +0.000 C 
ATOM     14  C   UNL     1     -71.969 -59.854 -27.732  0.00  0.00    +0.000 C 
ATOM     15  C   UNL     1     -71.402 -56.391 -28.141  0.00  0.00    +0.000 C 
ATOM     16  C   UNL     1     -73.941 -58.589 -28.689  0.00  0.00    +0.000 C 
ATOM     17  C   UNL     1     -71.459 -57.756 -26.231  0.00  0.00    +0.000 C 
ATOM     18  C   UNL     1     -71.374 -60.063 -26.330  0.00  0.00    +0.000 C 
ATOM     19  C   UNL     1     -71.098 -58.934 -25.487  0.00  0.00    +0.000 C 
ENDROOT
BRANCH   5  20
ATOM     20  C   UNL     1     -68.921 -59.497 -34.631  0.00  0.00    +0.000 C 
ATOM     21  C   UNL     1     -68.665 -60.970 -34.456  0.00  0.00    +0.000 C 
BRANCH  20  22
ATOM     22  C   UNL     1     -68.581 -58.960 -35.904  0.00  0.00    +0.000 C 
ATOM     23  C   UNL     1     -68.214 -58.376 -37.277  0.00  0.00    +0.000 C 
BRANCH  23  24
ATOM     24  C   UNL     1     -67.888 -57.825 -38.553  0.00  0.00    +0.000 C 
ATOM     25  C   UNL     1     -67.743 -58.670 -39.720  0.00  0.00    +0.000 C 
ATOM     26  C   UNL     1     -67.359 -58.144 -41.085  0.00  0.00    +0.000 C 
ATOM     27  C   UNL     1     -67.968 -60.167 -39.678  0.00  0.00    +0.000 C 
BRANCH  24  28
ATOM     28  C   UNL     1     -67.702 -56.423 -38.682  0.00  0.00    +0.000 C 
ATOM     29  C   UNL     1     -67.540 -54.911 -38.878  0.00  0.00    +0.000 C 
ENDBRANCH  24  28
ENDBRANCH  23  24
ENDBRANCH  20  22
ENDBRANCH   5  20
BRANCH  19  30
ATOM     30  O   UNL     1     -71.392 -58.973 -24.127  0.00  0.00    +0.000 OA
BRANCH  30  32
ATOM     31  O   UNL     1     -73.635 -59.545 -24.345  0.00  0.00    +0.000 OA
ATOM     32  C   UNL     1     -72.732 -58.854 -23.899  0.00  0.00    +0.000 C 
BRANCH  32  33
ATOM     33  C   UNL     1     -73.019 -57.774 -22.987  0.00  0.00    +0.000 C 
ATOM     34  C   UNL     1     -73.263 -56.864 -22.241  0.00  0.00    +0.000 C 
BRANCH  34  35
ATOM     35  C   UNL     1     -73.559 -55.773 -21.372  0.00  0.00    +0.000 A 
ATOM     36  C   UNL     1     -74.454 -54.785 -21.781  0.00  0.00    +0.000 A 
ATOM     37  C   UNL     1     -72.950 -55.691 -20.123  0.00  0.00    +0.000 A 
ATOM     38  C   UNL     1     -74.752 -53.705 -20.946  0.00  0.00    +0.000 A 
ATOM     39  C   UNL     1     -73.237 -54.619 -19.280  0.00  0.00    +0.000 A 
ATOM     40  C   UNL     1     -74.133 -53.635 -19.695  0.00  0.00    +0.000 A 
BRANCH  38  41
ATOM     41  O   UNL     1     -75.619 -52.691 -21.272  0.00  0.00    +0.000 OA
ATOM     42  C   UNL     1     -76.984 -53.007 -21.177  0.00  0.00    +0.000 C 
ENDBRANCH  38  41
BRANCH  40  43
ATOM     43  O   UNL     1     -74.410 -52.584 -18.864  0.00  0.00    +0.000 OA
ATOM     44  H   UNL     1     -75.373 -52.427 -18.869  0.00  0.00    +0.000 HD
ENDBRANCH  40  43
ENDBRANCH  34  35
ENDBRANCH  32  33
ENDBRANCH  30  32
ENDBRANCH  19  30
TORSDOF 10
ENDMDL
MODEL 2
REMARK VINA RESULT:      -7.5      6.613     15.859
REMARK  Name = 91746246_sitosterol.pdbqt.pdb
REMARK  10 active torsions:
REMARK  status: ('A' for Active; 'I' for Inactive)
REMARK    1  A    between atoms: C_5  and  C_20
REMARK    2  A    between atoms: C_19  and  O_30
REMARK    3  A    between atoms: C_20  and  C_22
REMARK    4  A    between atoms: C_23  and  C_24
REMARK    5  A    between atoms: C_24  and  C_28
REMARK    6  A    between atoms: O_30  and  C_32
REMARK    7  A    between atoms: C_32  and  C_33
REMARK    8  A    between atoms: C_34  and  C_35
REMARK    9  A    between atoms: C_38  and  O_41
REMARK   10  A    between atoms: C_40  and  O_43
REMARK                            x       y       z     vdW  Elec       q    Type
REMARK                         _______ _______ _______ _____ _____    ______ ____
ROOT
ATOM      1  C   UNL     1     -71.353 -57.918 -31.900  0.00  0.00    +0.000 C 
ATOM      2  C   UNL     1     -69.824 -57.736 -32.405  0.00  0.00    +0.000 C 
ATOM      3  C   UNL     1     -69.442 -57.865 -33.826  0.00  0.00    +0.000 C 
ATOM      4  C   UNL     1     -70.392 -57.915 -34.997  0.00  0.00    +0.000 C 
ATOM      5  C   UNL     1     -71.523 -56.776 -30.905  0.00  0.00    +0.000 C 
ATOM      6  C   UNL     1     -72.158 -57.804 -33.115  0.00  0.00    +0.000 C 
ATOM      7  C   UNL     1     -69.936 -58.105 -36.467  0.00  0.00    +0.000 C 
ATOM      8  C   UNL     1     -69.221 -56.730 -31.586  0.00  0.00    +0.000 C 
ATOM      9  C   UNL     1     -71.742 -57.827 -34.565  0.00  0.00    +0.000 C 
ATOM     10  C   UNL     1     -70.271 -56.128 -30.692  0.00  0.00    +0.000 C 
ATOM     11  C   UNL     1     -68.085 -57.794 -34.228  0.00  0.00    +0.000 C 
ATOM     12  C   UNL     1     -71.436 -59.297 -31.193  0.00  0.00    +0.000 C 
ATOM     13  C   UNL     1     -68.334 -57.795 -36.719  0.00  0.00    +0.000 C 
ATOM     14  C   UNL     1     -70.629 -57.128 -37.358  0.00  0.00    +0.000 C 
ATOM     15  C   UNL     1     -67.603 -57.761 -35.647  0.00  0.00    +0.000 C 
ATOM     16  C   UNL     1     -70.194 -59.578 -36.900  0.00  0.00    +0.000 C 
ATOM     17  C   UNL     1     -68.046 -56.830 -37.756  0.00  0.00    +0.000 C 
ATOM     18  C   UNL     1     -70.144 -56.101 -38.395  0.00  0.00    +0.000 C 
ATOM     19  C   UNL     1     -68.739 -55.929 -38.639  0.00  0.00    +0.000 C 
ENDROOT
BRANCH   5  20
ATOM     20  C   UNL     1     -72.695 -56.566 -30.118  0.00  0.00    +0.000 C 
ATOM     21  C   UNL     1     -73.874 -55.778 -30.623  0.00  0.00    +0.000 C 
BRANCH  20  22
ATOM     22  C   UNL     1     -72.709 -56.873 -28.728  0.00  0.00    +0.000 C 
ATOM     23  C   UNL     1     -72.722 -57.207 -27.229  0.00  0.00    +0.000 C 
BRANCH  23  24
ATOM     24  C   UNL     1     -72.734 -57.535 -25.839  0.00  0.00    +0.000 C 
ATOM     25  C   UNL     1     -72.019 -58.689 -25.335  0.00  0.00    +0.000 C 
ATOM     26  C   UNL     1     -72.032 -59.105 -23.881  0.00  0.00    +0.000 C 
ATOM     27  C   UNL     1     -71.186 -59.588 -26.225  0.00  0.00    +0.000 C 
BRANCH  24  28
ATOM     28  C   UNL     1     -73.459 -56.715 -24.934  0.00  0.00    +0.000 C 
ATOM     29  C   UNL     1     -74.184 -55.794 -23.946  0.00  0.00    +0.000 C 
ENDBRANCH  24  28
ENDBRANCH  23  24
ENDBRANCH  20  22
ENDBRANCH   5  20
BRANCH  19  30
ATOM     30  O   UNL     1     -68.257 -55.771 -39.935  0.00  0.00    +0.000 OA
BRANCH  30  32
ATOM     31  O   UNL     1     -66.804 -54.086 -39.259  0.00  0.00    +0.000 OA
ATOM     32  C   UNL     1     -67.102 -55.043 -39.957  0.00  0.00    +0.000 C 
BRANCH  32  33
ATOM     33  C   UNL     1     -66.171 -55.558 -40.930  0.00  0.00    +0.000 C 
ATOM     34  C   UNL     1     -65.402 -56.005 -41.739  0.00  0.00    +0.000 C 
BRANCH  34  35
ATOM     35  C   UNL     1     -64.499 -56.552 -42.697  0.00  0.00    +0.000 A 
ATOM     36  C   UNL     1     -64.974 -56.951 -43.946  0.00  0.00    +0.000 A 
ATOM     37  C   UNL     1     -63.150 -56.693 -42.384  0.00  0.00    +0.000 A 
ATOM     38  C   UNL     1     -64.105 -57.495 -44.896  0.00  0.00    +0.000 A 
ATOM     39  C   UNL     1     -62.273 -57.233 -43.322  0.00  0.00    +0.000 A 
ATOM     40  C   UNL     1     -62.754 -57.631 -44.568  0.00  0.00    +0.000 A 
BRANCH  38  41
ATOM     41  O   UNL     1     -64.490 -57.914 -46.146  0.00  0.00    +0.000 OA
ATOM     42  C   UNL     1     -65.329 -59.040 -46.175  0.00  0.00    +0.000 C 
ENDBRANCH  38  41
BRANCH  40  43
ATOM     43  O   UNL     1     -61.888 -58.163 -45.485  0.00  0.00    +0.000 OA
ATOM     44  H   UNL     1     -61.486 -57.435 -45.994  0.00  0.00    +0.000 HD
ENDBRANCH  40  43
ENDBRANCH  34  35
ENDBRANCH  32  33
ENDBRANCH  30  32
ENDBRANCH  19  30
TORSDOF 10
ENDMDL
MODEL 3
REMARK VINA RESULT:      -7.5     32.517     40.470
REMARK  Name = 91746246_sitosterol.pdbqt.pdb
REMARK  10 active torsions:
REMARK  status: ('A' for Active; 'I' for Inactive)
REMARK    1  A    between atoms: C_5  and  C_20
REMARK    2  A    between atoms: C_19  and  O_30
REMARK    3  A    between atoms: C_20  and  C_22
REMARK    4  A    between atoms: C_23  and  C_24
REMARK    5  A    between atoms: C_24  and  C_28
REMARK    6  A    between atoms: O_30  and  C_32
REMARK    7  A    between atoms: C_32  and  C_33
REMARK    8  A    between atoms: C_34  and  C_35
REMARK    9  A    between atoms: C_38  and  O_41
REMARK   10  A    between atoms: C_40  and  O_43
REMARK                            x       y       z     vdW  Elec       q    Type
REMARK                         _______ _______ _______ _____ _____    ______ ____
ROOT
ATOM      1  C   UNL     1     -59.298 -61.696 -62.914  0.00  0.00    +0.000 C 
ATOM      2  C   UNL     1     -58.992 -61.402 -64.478  0.00  0.00    +0.000 C 
ATOM      3  C   UNL     1     -59.101 -62.450 -65.514  0.00  0.00    +0.000 C 
ATOM      4  C   UNL     1     -59.735 -63.807 -65.337  0.00  0.00    +0.000 C 
ATOM      5  C   UNL     1     -60.112 -60.480 -62.490  0.00  0.00    +0.000 C 
ATOM      6  C   UNL     1     -60.031 -62.961 -62.914  0.00  0.00    +0.000 C 
ATOM      7  C   UNL     1     -59.773 -64.890 -66.446  0.00  0.00    +0.000 C 
ATOM      8  C   UNL     1     -59.429 -60.069 -64.755  0.00  0.00    +0.000 C 
ATOM      9  C   UNL     1     -60.227 -63.974 -64.015  0.00  0.00    +0.000 C 
ATOM     10  C   UNL     1     -60.138 -59.521 -63.545  0.00  0.00    +0.000 C 
ATOM     11  C   UNL     1     -58.737 -62.190 -66.858  0.00  0.00    +0.000 C 
ATOM     12  C   UNL     1     -57.929 -61.739 -62.185  0.00  0.00    +0.000 C 
ATOM     13  C   UNL     1     -59.486 -64.308 -67.963  0.00  0.00    +0.000 C 
ATOM     14  C   UNL     1     -61.140 -65.483 -66.549  0.00  0.00    +0.000 C 
ATOM     15  C   UNL     1     -58.949 -63.127 -68.009  0.00  0.00    +0.000 C 
ATOM     16  C   UNL     1     -58.687 -65.967 -66.152  0.00  0.00    +0.000 C 
ATOM     17  C   UNL     1     -60.496 -64.623 -68.949  0.00  0.00    +0.000 C 
ATOM     18  C   UNL     1     -62.127 -65.691 -67.709  0.00  0.00    +0.000 C 
ATOM     19  C   UNL     1     -61.793 -65.241 -69.031  0.00  0.00    +0.000 C 
ENDROOT
BRANCH   5  20
ATOM     20  C   UNL     1     -60.550 -60.233 -61.153  0.00  0.00    +0.000 C 
ATOM     21  C   UNL     1     -61.444 -61.190 -60.411  0.00  0.00    +0.000 C 
BRANCH  20  22
ATOM     22  C   UNL     1     -60.371 -58.959 -60.547  0.00  0.00    +0.000 C 
ATOM     23  C   UNL     1     -60.177 -57.584 -59.890  0.00  0.00    +0.000 C 
BRANCH  23  24
ATOM     24  C   UNL     1     -60.009 -56.310 -59.267  0.00  0.00    +0.000 C 
ATOM     25  C   UNL     1     -59.949 -56.183 -57.826  0.00  0.00    +0.000 C 
ATOM     26  C   UNL     1     -59.814 -54.855 -57.114  0.00  0.00    +0.000 C 
ATOM     27  C   UNL     1     -60.014 -57.376 -56.896  0.00  0.00    +0.000 C 
BRANCH  24  28
ATOM     28  C   UNL     1     -59.899 -55.146 -60.074  0.00  0.00    +0.000 C 
ATOM     29  C   UNL     1     -59.850 -53.888 -60.947  0.00  0.00    +0.000 C 
ENDBRANCH  24  28
ENDBRANCH  23  24
ENDBRANCH  20  22
ENDBRANCH   5  20
BRANCH  19  30
ATOM     30  O   UNL     1     -62.082 -66.025 -70.144  0.00  0.00    +0.000 OA
BRANCH  30  32
ATOM     31  O   UNL     1     -61.160 -65.569 -72.229  0.00  0.00    +0.000 OA
ATOM     32  C   UNL     1     -61.923 -65.328 -71.306  0.00  0.00    +0.000 C 
BRANCH  32  33
ATOM     33  C   UNL     1     -62.827 -64.206 -71.377  0.00  0.00    +0.000 C 
ATOM     34  C   UNL     1     -63.584 -63.276 -71.455  0.00  0.00    +0.000 C 
BRANCH  34  35
ATOM     35  C   UNL     1     -64.483 -62.175 -71.566  0.00  0.00    +0.000 A 
ATOM     36  C   UNL     1     -64.953 -61.790 -72.821  0.00  0.00    +0.000 A 
ATOM     37  C   UNL     1     -64.886 -61.484 -70.426  0.00  0.00    +0.000 A 
ATOM     38  C   UNL     1     -65.831 -60.710 -72.951  0.00  0.00    +0.000 A 
ATOM     39  C   UNL     1     -65.760 -60.406 -70.542  0.00  0.00    +0.000 A 
ATOM     40  C   UNL     1     -66.226 -60.025 -71.799  0.00  0.00    +0.000 A 
BRANCH  38  41
ATOM     41  O   UNL     1     -66.338 -60.265 -74.148  0.00  0.00    +0.000 OA
ATOM     42  C   UNL     1     -66.760 -61.267 -75.036  0.00  0.00    +0.000 C 
ENDBRANCH  38  41
BRANCH  40  43
ATOM     43  O   UNL     1     -67.083 -58.964 -71.906  0.00  0.00    +0.000 OA
ATOM     44  H   UNL     1     -66.666 -58.183 -71.495  0.00  0.00    +0.000 HD
ENDBRANCH  40  43
ENDBRANCH  34  35
ENDBRANCH  32  33
ENDBRANCH  30  32
ENDBRANCH  19  30
TORSDOF 10
ENDMDL
MODEL 4
REMARK VINA RESULT:      -7.3      4.181     15.124
REMARK  Name = 91746246_sitosterol.pdbqt.pdb
REMARK  10 active torsions:
REMARK  status: ('A' for Active; 'I' for Inactive)
REMARK    1  A    between atoms: C_5  and  C_20
REMARK    2  A    between atoms: C_19  and  O_30
REMARK    3  A    between atoms: C_20  and  C_22
REMARK    4  A    between atoms: C_23  and  C_24
REMARK    5  A    between atoms: C_24  and  C_28
REMARK    6  A    between atoms: O_30  and  C_32
REMARK    7  A    between atoms: C_32  and  C_33
REMARK    8  A    between atoms: C_34  and  C_35
REMARK    9  A    between atoms: C_38  and  O_41
REMARK   10  A    between atoms: C_40  and  O_43
REMARK                            x       y       z     vdW  Elec       q    Type
REMARK                         _______ _______ _______ _____ _____    ______ ____
ROOT
ATOM      1  C   UNL     1     -75.294 -55.897 -21.648  0.00  0.00    +0.000 C 
ATOM      2  C   UNL     1     -73.960 -56.759 -21.967  0.00  0.00    +0.000 C 
ATOM      3  C   UNL     1     -73.660 -57.278 -23.317  0.00  0.00    +0.000 C 
ATOM      4  C   UNL     1     -74.364 -56.887 -24.593  0.00  0.00    +0.000 C 
ATOM      5  C   UNL     1     -74.773 -54.774 -20.760  0.00  0.00    +0.000 C 
ATOM      6  C   UNL     1     -75.781 -55.473 -22.960  0.00  0.00    +0.000 C 
ATOM      7  C   UNL     1     -74.042 -57.506 -25.978  0.00  0.00    +0.000 C 
ATOM      8  C   UNL     1     -72.910 -56.238 -21.147  0.00  0.00    +0.000 C 
ATOM      9  C   UNL     1     -75.387 -55.935 -24.341  0.00  0.00    +0.000 C 
ATOM     10  C   UNL     1     -73.405 -55.009 -20.434  0.00  0.00    +0.000 C 
ATOM     11  C   UNL     1     -72.535 -58.108 -23.548  0.00  0.00    +0.000 C 
ATOM     12  C   UNL     1     -76.260 -56.828 -20.868  0.00  0.00    +0.000 C 
ATOM     13  C   UNL     1     -72.585 -58.279 -26.045  0.00  0.00    +0.000 C 
ATOM     14  C   UNL     1     -73.921 -56.435 -27.011  0.00  0.00    +0.000 C 
ATOM     15  C   UNL     1     -72.056 -58.562 -24.894  0.00  0.00    +0.000 C 
ATOM     16  C   UNL     1     -75.136 -58.552 -26.341  0.00  0.00    +0.000 C 
ATOM     17  C   UNL     1     -71.699 -57.839 -27.099  0.00  0.00    +0.000 C 
ATOM     18  C   UNL     1     -72.843 -56.067 -28.044  0.00  0.00    +0.000 C 
ATOM     19  C   UNL     1     -71.626 -56.827 -28.120  0.00  0.00    +0.000 C 
ENDROOT
BRANCH   5  20
ATOM     20  C   UNL     1     -75.601 -53.789 -20.142  0.00  0.00    +0.000 C 
ATOM     21  C   UNL     1     -75.823 -52.429 -20.748  0.00  0.00    +0.000 C 
BRANCH  20  22
ATOM     22  C   UNL     1     -76.056 -53.949 -18.803  0.00  0.00    +0.000 C 
ATOM     23  C   UNL     1     -76.549 -54.122 -17.359  0.00  0.00    +0.000 C 
BRANCH  23  24
ATOM     24  C   UNL     1     -77.018 -54.269 -16.018  0.00  0.00    +0.000 C 
ATOM     25  C   UNL     1     -77.243 -55.578 -15.442  0.00  0.00    +0.000 C 
ATOM     26  C   UNL     1     -77.778 -55.790 -14.043  0.00  0.00    +0.000 C 
ATOM     27  C   UNL     1     -76.958 -56.862 -16.193  0.00  0.00    +0.000 C 
BRANCH  24  28
ATOM     28  C   UNL     1     -77.270 -53.111 -15.235  0.00  0.00    +0.000 C 
ATOM     29  C   UNL     1     -77.595 -51.845 -14.433  0.00  0.00    +0.000 C 
ENDBRANCH  24  28
ENDBRANCH  23  24
ENDBRANCH  20  22
ENDBRANCH   5  20
BRANCH  19  30
ATOM     30  O   UNL     1     -71.077 -57.168 -29.352  0.00  0.00    +0.000 OA
BRANCH  30  32
ATOM     31  O   UNL     1     -69.918 -55.153 -29.269  0.00  0.00    +0.000 OA
ATOM     32  C   UNL     1     -70.264 -56.182 -29.831  0.00  0.00    +0.000 C 
BRANCH  32  33
ATOM     33  C   UNL     1     -69.780 -56.491 -31.154  0.00  0.00    +0.000 C 
ATOM     34  C   UNL     1     -69.393 -56.745 -32.263  0.00  0.00    +0.000 C 
BRANCH  34  35
ATOM     35  C   UNL     1     -68.952 -57.043 -33.586  0.00  0.00    +0.000 A 
ATOM     36  C   UNL     1     -69.743 -56.681 -34.676  0.00  0.00    +0.000 A 
ATOM     37  C   UNL     1     -67.741 -57.698 -33.787  0.00  0.00    +0.000 A 
ATOM     38  C   UNL     1     -69.331 -56.969 -35.980  0.00  0.00    +0.000 A 
ATOM     39  C   UNL     1     -67.318 -57.991 -35.082  0.00  0.00    +0.000 A 
ATOM     40  C   UNL     1     -68.113 -57.628 -36.168  0.00  0.00    +0.000 A 
BRANCH  38  41
ATOM     41  O   UNL     1     -70.049 -56.650 -37.107  0.00  0.00    +0.000 OA
ATOM     42  C   UNL     1     -71.256 -57.348 -37.273  0.00  0.00    +0.000 C 
ENDBRANCH  38  41
BRANCH  40  43
ATOM     43  O   UNL     1     -67.694 -57.920 -37.437  0.00  0.00    +0.000 OA
ATOM     44  H   UNL     1     -68.067 -57.259 -38.049  0.00  0.00    +0.000 HD
ENDBRANCH  40  43
ENDBRANCH  34  35
ENDBRANCH  32  33
ENDBRANCH  30  32
ENDBRANCH  19  30
TORSDOF 10
ENDMDL
MODEL 5
REMARK VINA RESULT:      -7.2      6.957     11.274
REMARK  Name = 91746246_sitosterol.pdbqt.pdb
REMARK  10 active torsions:
REMARK  status: ('A' for Active; 'I' for Inactive)
REMARK    1  A    between atoms: C_5  and  C_20
REMARK    2  A    between atoms: C_19  and  O_30
REMARK    3  A    between atoms: C_20  and  C_22
REMARK    4  A    between atoms: C_23  and  C_24
REMARK    5  A    between atoms: C_24  and  C_28
REMARK    6  A    between atoms: O_30  and  C_32
REMARK    7  A    between atoms: C_32  and  C_33
REMARK    8  A    between atoms: C_34  and  C_35
REMARK    9  A    between atoms: C_38  and  O_41
REMARK   10  A    between atoms: C_40  and  O_43
REMARK                            x       y       z     vdW  Elec       q    Type
REMARK                         _______ _______ _______ _____ _____    ______ ____
ROOT
ATOM      1  C   UNL     1     -73.774 -58.100 -24.120  0.00  0.00    +0.000 C 
ATOM      2  C   UNL     1     -74.340 -56.614 -24.432  0.00  0.00    +0.000 C 
ATOM      3  C   UNL     1     -74.522 -55.601 -23.373  0.00  0.00    +0.000 C 
ATOM      4  C   UNL     1     -73.993 -55.688 -21.963  0.00  0.00    +0.000 C 
ATOM      5  C   UNL     1     -72.788 -58.338 -25.256  0.00  0.00    +0.000 C 
ATOM      6  C   UNL     1     -73.172 -57.994 -22.792  0.00  0.00    +0.000 C 
ATOM      7  C   UNL     1     -74.262 -54.616 -20.875  0.00  0.00    +0.000 C 
ATOM      8  C   UNL     1     -73.841 -56.230 -25.717  0.00  0.00    +0.000 C 
ATOM      9  C   UNL     1     -73.280 -56.899 -21.759  0.00  0.00    +0.000 C 
ATOM     10  C   UNL     1     -72.872 -57.274 -26.202  0.00  0.00    +0.000 C 
ATOM     11  C   UNL     1     -75.106 -54.342 -23.659  0.00  0.00    +0.000 C 
ATOM     12  C   UNL     1     -74.981 -59.072 -24.210  0.00  0.00    +0.000 C 
ATOM     13  C   UNL     1     -74.774 -53.166 -21.474  0.00  0.00    +0.000 C 
ATOM     14  C   UNL     1     -72.999 -54.276 -20.156  0.00  0.00    +0.000 C 
ATOM     15  C   UNL     1     -75.200 -53.194 -22.699  0.00  0.00    +0.000 C 
ATOM     16  C   UNL     1     -75.368 -55.131 -19.907  0.00  0.00    +0.000 C 
ATOM     17  C   UNL     1     -73.999 -52.017 -21.060  0.00  0.00    +0.000 C 
ATOM     18  C   UNL     1     -72.270 -52.957 -19.850  0.00  0.00    +0.000 C 
ATOM     19  C   UNL     1     -72.803 -51.710 -20.322  0.00  0.00    +0.000 C 
ENDROOT
BRANCH   5  20
ATOM     20  C   UNL     1     -72.086 -59.563 -25.468  0.00  0.00    +0.000 C 
ATOM     21  C   UNL     1     -71.526 -59.949 -26.811  0.00  0.00    +0.000 C 
BRANCH  20  22
ATOM     22  C   UNL     1     -72.099 -60.593 -24.486  0.00  0.00    +0.000 C 
ATOM     23  C   UNL     1     -72.110 -61.704 -23.425  0.00  0.00    +0.000 C 
BRANCH  23  24
ATOM     24  C   UNL     1     -72.103 -62.739 -22.441  0.00  0.00    +0.000 C 
ATOM     25  C   UNL     1     -72.856 -63.960 -22.633  0.00  0.00    +0.000 C 
ATOM     26  C   UNL     1     -72.917 -65.070 -21.606  0.00  0.00    +0.000 C 
ATOM     27  C   UNL     1     -73.655 -64.240 -23.889  0.00  0.00    +0.000 C 
BRANCH  24  28
ATOM     28  C   UNL     1     -71.344 -62.568 -21.253  0.00  0.00    +0.000 C 
ATOM     29  C   UNL     1     -70.557 -62.440 -19.943  0.00  0.00    +0.000 C 
ENDBRANCH  24  28
ENDBRANCH  23  24
ENDBRANCH  20  22
ENDBRANCH   5  20
BRANCH  19  30
ATOM     30  O   UNL     1     -72.800 -50.581 -19.507  0.00  0.00    +0.000 OA
BRANCH  30  32
ATOM     31  O   UNL     1     -72.517 -48.540 -20.585  0.00  0.00    +0.000 OA
ATOM     32  C   UNL     1     -72.088 -49.560 -20.066  0.00  0.00    +0.000 C 
BRANCH  32  33
ATOM     33  C   UNL     1     -70.668 -49.784 -19.958  0.00  0.00    +0.000 C 
ATOM     34  C   UNL     1     -69.487 -49.983 -19.854  0.00  0.00    +0.000 C 
BRANCH  34  35
ATOM     35  C   UNL     1     -68.090 -50.230 -19.715  0.00  0.00    +0.000 A 
ATOM     36  C   UNL     1     -67.648 -51.478 -19.276  0.00  0.00    +0.000 A 
ATOM     37  C   UNL     1     -67.170 -49.227 -20.009  0.00  0.00    +0.000 A 
ATOM     38  C   UNL     1     -66.283 -51.738 -19.128  0.00  0.00    +0.000 A 
ATOM     39  C   UNL     1     -65.807 -49.473 -19.866  0.00  0.00    +0.000 A 
ATOM     40  C   UNL     1     -65.372 -50.722 -19.426  0.00  0.00    +0.000 A 
BRANCH  38  41
ATOM     41  O   UNL     1     -65.766 -52.937 -18.701  0.00  0.00    +0.000 OA
ATOM     42  C   UNL     1     -65.965 -53.232 -17.343  0.00  0.00    +0.000 C 
ENDBRANCH  38  41
BRANCH  40  43
ATOM     43  O   UNL     1     -64.031 -50.957 -19.286  0.00  0.00    +0.000 OA
ATOM     44  H   UNL     1     -63.540 -50.239 -19.728  0.00  0.00    +0.000 HD
ENDBRANCH  40  43
ENDBRANCH  34  35
ENDBRANCH  32  33
ENDBRANCH  30  32
ENDBRANCH  19  30
TORSDOF 10
ENDMDL
MODEL 6
REMARK VINA RESULT:      -7.2      5.495     13.525
REMARK  Name = 91746246_sitosterol.pdbqt.pdb
REMARK  10 active torsions:
REMARK  status: ('A' for Active; 'I' for Inactive)
REMARK    1  A    between atoms: C_5  and  C_20
REMARK    2  A    between atoms: C_19  and  O_30
REMARK    3  A    between atoms: C_20  and  C_22
REMARK    4  A    between atoms: C_23  and  C_24
REMARK    5  A    between atoms: C_24  and  C_28
REMARK    6  A    between atoms: O_30  and  C_32
REMARK    7  A    between atoms: C_32  and  C_33
REMARK    8  A    between atoms: C_34  and  C_35
REMARK    9  A    between atoms: C_38  and  O_41
REMARK   10  A    between atoms: C_40  and  O_43
REMARK                            x       y       z     vdW  Elec       q    Type
REMARK                         _______ _______ _______ _____ _____    ______ ____
ROOT
ATOM      1  C   UNL     1     -71.866 -55.262 -30.014  0.00  0.00    +0.000 C 
ATOM      2  C   UNL     1     -71.866 -54.936 -31.601  0.00  0.00    +0.000 C 
ATOM      3  C   UNL     1     -71.057 -55.708 -32.566  0.00  0.00    +0.000 C 
ATOM      4  C   UNL     1     -70.353 -57.012 -32.287  0.00  0.00    +0.000 C 
ATOM      5  C   UNL     1     -73.341 -55.167 -29.644  0.00  0.00    +0.000 C 
ATOM      6  C   UNL     1     -71.289 -56.602 -29.914  0.00  0.00    +0.000 C 
ATOM      7  C   UNL     1     -69.470 -57.753 -33.325  0.00  0.00    +0.000 C 
ATOM      8  C   UNL     1     -73.187 -54.511 -31.948  0.00  0.00    +0.000 C 
ATOM      9  C   UNL     1     -70.558 -57.427 -30.944  0.00  0.00    +0.000 C 
ATOM     10  C   UNL     1     -74.089 -54.681 -30.756  0.00  0.00    +0.000 C 
ATOM     11  C   UNL     1     -71.003 -55.341 -33.933  0.00  0.00    +0.000 C 
ATOM     12  C   UNL     1     -71.039 -54.147 -29.322  0.00  0.00    +0.000 C 
ATOM     13  C   UNL     1     -69.715 -57.267 -34.883  0.00  0.00    +0.000 C 
ATOM     14  C   UNL     1     -69.807 -59.207 -33.352  0.00  0.00    +0.000 C 
ATOM     15  C   UNL     1     -70.340 -56.137 -35.017  0.00  0.00    +0.000 C 
ATOM     16  C   UNL     1     -67.969 -57.505 -32.995  0.00  0.00    +0.000 C 
ATOM     17  C   UNL     1     -70.033 -58.323 -35.818  0.00  0.00    +0.000 C 
ATOM     18  C   UNL     1     -70.191 -60.192 -34.469  0.00  0.00    +0.000 C 
ATOM     19  C   UNL     1     -70.308 -59.736 -35.825  0.00  0.00    +0.000 C 
ENDROOT
BRANCH   5  20
ATOM     20  C   UNL     1     -73.845 -55.292 -28.314  0.00  0.00    +0.000 C 
ATOM     21  C   UNL     1     -74.658 -54.210 -27.656  0.00  0.00    +0.000 C 
BRANCH  20  22
ATOM     22  C   UNL     1     -73.395 -56.334 -27.455  0.00  0.00    +0.000 C 
ATOM     23  C   UNL     1     -72.912 -57.460 -26.529  0.00  0.00    +0.000 C 
BRANCH  23  24
ATOM     24  C   UNL     1     -72.479 -58.507 -25.660  0.00  0.00    +0.000 C 
ATOM     25  C   UNL     1     -72.577 -58.376 -24.222  0.00  0.00    +0.000 C 
ATOM     26  C   UNL     1     -72.095 -59.436 -23.256  0.00  0.00    +0.000 C 
ATOM     27  C   UNL     1     -73.178 -57.159 -23.550  0.00  0.00    +0.000 C 
BRANCH  24  28
ATOM     28  C   UNL     1     -71.940 -59.699 -26.216  0.00  0.00    +0.000 C 
ATOM     29  C   UNL     1     -71.300 -60.950 -26.826  0.00  0.00    +0.000 C 
ENDBRANCH  24  28
ENDBRANCH  23  24
ENDBRANCH  20  22
ENDBRANCH   5  20
BRANCH  19  30
ATOM     30  O   UNL     1     -69.815 -60.500 -36.878  0.00  0.00    +0.000 OA
BRANCH  30  32
ATOM     31  O   UNL     1     -67.585 -61.131 -36.683  0.00  0.00    +0.000 OA
ATOM     32  C   UNL     1     -68.465 -60.352 -37.018  0.00  0.00    +0.000 C 
BRANCH  32  33
ATOM     33  C   UNL     1     -68.135 -59.112 -37.676  0.00  0.00    +0.000 C 
ATOM     34  C   UNL     1     -67.871 -58.084 -38.238  0.00  0.00    +0.000 C 
BRANCH  34  35
ATOM     35  C   UNL     1     -67.569 -56.868 -38.921  0.00  0.00    +0.000 A 
ATOM     36  C   UNL     1     -67.107 -56.910 -40.235  0.00  0.00    +0.000 A 
ATOM     37  C   UNL     1     -67.730 -55.646 -38.274  0.00  0.00    +0.000 A 
ATOM     38  C   UNL     1     -66.801 -55.730 -40.920  0.00  0.00    +0.000 A 
ATOM     39  C   UNL     1     -67.428 -54.463 -38.944  0.00  0.00    +0.000 A 
ATOM     40  C   UNL     1     -66.965 -54.510 -40.258  0.00  0.00    +0.000 A 
BRANCH  38  41
ATOM     41  O   UNL     1     -66.339 -55.682 -42.212  0.00  0.00    +0.000 OA
ATOM     42  C   UNL     1     -67.312 -55.863 -43.209  0.00  0.00    +0.000 C 
ENDBRANCH  38  41
BRANCH  40  43
ATOM     43  O   UNL     1     -66.669 -53.345 -40.910  0.00  0.00    +0.000 OA
ATOM     44  H   UNL     1     -65.705 -53.304 -41.054  0.00  0.00    +0.000 HD
ENDBRANCH  40  43
ENDBRANCH  34  35
ENDBRANCH  32  33
ENDBRANCH  30  32
ENDBRANCH  19  30
TORSDOF 10
ENDMDL
MODEL 7
REMARK VINA RESULT:      -7.1     27.854     34.527
REMARK  Name = 91746246_sitosterol.pdbqt.pdb
REMARK  10 active torsions:
REMARK  status: ('A' for Active; 'I' for Inactive)
REMARK    1  A    between atoms: C_5  and  C_20
REMARK    2  A    between atoms: C_19  and  O_30
REMARK    3  A    between atoms: C_20  and  C_22
REMARK    4  A    between atoms: C_23  and  C_24
REMARK    5  A    between atoms: C_24  and  C_28
REMARK    6  A    between atoms: O_30  and  C_32
REMARK    7  A    between atoms: C_32  and  C_33
REMARK    8  A    between atoms: C_34  and  C_35
REMARK    9  A    between atoms: C_38  and  O_41
REMARK   10  A    between atoms: C_40  and  O_43
REMARK                            x       y       z     vdW  Elec       q    Type
REMARK                         _______ _______ _______ _____ _____    ______ ____
ROOT
ATOM      1  C   UNL     1     -58.481 -61.148 -63.875  0.00  0.00    +0.000 C 
ATOM      2  C   UNL     1     -59.755 -61.370 -62.898  0.00  0.00    +0.000 C 
ATOM      3  C   UNL     1     -59.916 -60.629 -61.631  0.00  0.00    +0.000 C 
ATOM      4  C   UNL     1     -59.112 -59.428 -61.199  0.00  0.00    +0.000 C 
ATOM      5  C   UNL     1     -59.113 -61.109 -65.261  0.00  0.00    +0.000 C 
ATOM      6  C   UNL     1     -57.890 -59.887 -63.429  0.00  0.00    +0.000 C 
ATOM      7  C   UNL     1     -59.290 -58.720 -59.831  0.00  0.00    +0.000 C 
ATOM      8  C   UNL     1     -60.889 -61.628 -63.731  0.00  0.00    +0.000 C 
ATOM      9  C   UNL     1     -58.145 -59.080 -62.179  0.00  0.00    +0.000 C 
ATOM     10  C   UNL     1     -60.497 -61.439 -65.171  0.00  0.00    +0.000 C 
ATOM     11  C   UNL     1     -60.991 -60.910 -60.752  0.00  0.00    +0.000 C 
ATOM     12  C   UNL     1     -57.562 -62.388 -63.711  0.00  0.00    +0.000 C 
ATOM     13  C   UNL     1     -60.711 -59.076 -59.070  0.00  0.00    +0.000 C 
ATOM     14  C   UNL     1     -59.348 -57.240 -60.013  0.00  0.00    +0.000 C 
ATOM     15  C   UNL     1     -61.332 -60.122 -59.523  0.00  0.00    +0.000 C 
ATOM     16  C   UNL     1     -58.136 -59.149 -58.877  0.00  0.00    +0.000 C 
ATOM     17  C   UNL     1     -61.511 -57.934 -58.688  0.00  0.00    +0.000 C 
ATOM     18  C   UNL     1     -60.339 -56.150 -59.572  0.00  0.00    +0.000 C 
ATOM     19  C   UNL     1     -61.521 -56.503 -58.836  0.00  0.00    +0.000 C 
ENDROOT
BRANCH   5  20
ATOM     20  C   UNL     1     -58.373 -61.016 -66.479  0.00  0.00    +0.000 C 
ATOM     21  C   UNL     1     -58.450 -62.072 -67.549  0.00  0.00    +0.000 C 
BRANCH  20  22
ATOM     22  C   UNL     1     -57.339 -60.052 -66.636  0.00  0.00    +0.000 C 
ATOM     23  C   UNL     1     -56.220 -59.012 -66.803  0.00  0.00    +0.000 C 
BRANCH  23  24
ATOM     24  C   UNL     1     -55.184 -58.039 -66.942  0.00  0.00    +0.000 C 
ATOM     25  C   UNL     1     -54.840 -57.491 -68.237  0.00  0.00    +0.000 C 
ATOM     26  C   UNL     1     -53.725 -56.490 -68.447  0.00  0.00    +0.000 C 
ATOM     27  C   UNL     1     -55.573 -57.871 -69.507  0.00  0.00    +0.000 C 
BRANCH  24  28
ATOM     28  C   UNL     1     -54.477 -57.602 -65.790  0.00  0.00    +0.000 C 
ATOM     29  C   UNL     1     -53.657 -57.122 -64.587  0.00  0.00    +0.000 C 
ENDBRANCH  24  28
ENDBRANCH  23  24
ENDBRANCH  20  22
ENDBRANCH   5  20
BRANCH  19  30
ATOM     30  O   UNL     1     -61.947 -55.729 -57.761  0.00  0.00    +0.000 OA
BRANCH  30  32
ATOM     31  O   UNL     1     -62.748 -56.910 -55.924  0.00  0.00    +0.000 OA
ATOM     32  C   UNL     1     -61.847 -56.409 -56.582  0.00  0.00    +0.000 C 
BRANCH  32  33
ATOM     33  C   UNL     1     -60.476 -56.526 -56.153  0.00  0.00    +0.000 C 
ATOM     34  C   UNL     1     -59.328 -56.610 -55.808  0.00  0.00    +0.000 C 
BRANCH  34  35
ATOM     35  C   UNL     1     -57.960 -56.696 -55.412  0.00  0.00    +0.000 A 
ATOM     36  C   UNL     1     -57.623 -56.591 -54.063  0.00  0.00    +0.000 A 
ATOM     37  C   UNL     1     -56.966 -56.877 -56.369  0.00  0.00    +0.000 A 
ATOM     38  C   UNL     1     -56.289 -56.667 -53.655  0.00  0.00    +0.000 A 
ATOM     39  C   UNL     1     -55.632 -56.954 -55.976  0.00  0.00    +0.000 A 
ATOM     40  C   UNL     1     -55.301 -56.847 -54.626  0.00  0.00    +0.000 A 
BRANCH  38  41
ATOM     41  O   UNL     1     -55.872 -56.572 -52.350  0.00  0.00    +0.000 OA
ATOM     42  C   UNL     1     -56.592 -57.346 -51.426  0.00  0.00    +0.000 C 
ENDBRANCH  38  41
BRANCH  40  43
ATOM     43  O   UNL     1     -53.989 -56.922 -54.247  0.00  0.00    +0.000 OA
ATOM     44  H   UNL     1     -53.598 -57.730 -54.631  0.00  0.00    +0.000 HD
ENDBRANCH  40  43
ENDBRANCH  34  35
ENDBRANCH  32  33
ENDBRANCH  30  32
ENDBRANCH  19  30
TORSDOF 10
ENDMDL
MODEL 8
REMARK VINA RESULT:      -7.1      6.583     12.781
REMARK  Name = 91746246_sitosterol.pdbqt.pdb
REMARK  10 active torsions:
REMARK  status: ('A' for Active; 'I' for Inactive)
REMARK    1  A    between atoms: C_5  and  C_20
REMARK    2  A    between atoms: C_19  and  O_30
REMARK    3  A    between atoms: C_20  and  C_22
REMARK    4  A    between atoms: C_23  and  C_24
REMARK    5  A    between atoms: C_24  and  C_28
REMARK    6  A    between atoms: O_30  and  C_32
REMARK    7  A    between atoms: C_32  and  C_33
REMARK    8  A    between atoms: C_34  and  C_35
REMARK    9  A    between atoms: C_38  and  O_41
REMARK   10  A    between atoms: C_40  and  O_43
REMARK                            x       y       z     vdW  Elec       q    Type
REMARK                         _______ _______ _______ _____ _____    ______ ____
ROOT
ATOM      1  C   UNL     1     -73.371 -57.667 -26.197  0.00  0.00    +0.000 C 
ATOM      2  C   UNL     1     -72.441 -57.422 -27.501  0.00  0.00    +0.000 C 
ATOM      3  C   UNL     1     -72.600 -56.241 -28.374  0.00  0.00    +0.000 C 
ATOM      4  C   UNL     1     -73.420 -55.014 -28.062  0.00  0.00    +0.000 C 
ATOM      5  C   UNL     1     -72.372 -58.130 -25.144  0.00  0.00    +0.000 C 
ATOM      6  C   UNL     1     -73.987 -56.366 -25.935  0.00  0.00    +0.000 C 
ATOM      7  C   UNL     1     -73.594 -53.824 -29.042  0.00  0.00    +0.000 C 
ATOM      8  C   UNL     1     -71.135 -57.917 -27.191  0.00  0.00    +0.000 C 
ATOM      9  C   UNL     1     -74.048 -55.127 -26.794  0.00  0.00    +0.000 C 
ATOM     10  C   UNL     1     -71.092 -58.322 -25.742  0.00  0.00    +0.000 C 
ATOM     11  C   UNL     1     -71.836 -56.100 -29.559  0.00  0.00    +0.000 C 
ATOM     12  C   UNL     1     -74.371 -58.797 -26.559  0.00  0.00    +0.000 C 
ATOM     13  C   UNL     1     -72.470 -53.779 -30.249  0.00  0.00    +0.000 C 
ATOM     14  C   UNL     1     -73.398 -52.528 -28.327  0.00  0.00    +0.000 C 
ATOM     15  C   UNL     1     -71.810 -54.881 -30.431  0.00  0.00    +0.000 C 
ATOM     16  C   UNL     1     -74.994 -53.915 -29.718  0.00  0.00    +0.000 C 
ATOM     17  C   UNL     1     -71.743 -52.534 -30.372  0.00  0.00    +0.000 C 
ATOM     18  C   UNL     1     -72.508 -51.299 -28.575  0.00  0.00    +0.000 C 
ATOM     19  C   UNL     1     -71.606 -51.273 -29.692  0.00  0.00    +0.000 C 
ENDROOT
BRANCH   5  20
ATOM     20  C   UNL     1     -72.730 -58.556 -23.829  0.00  0.00    +0.000 C 
ATOM     21  C   UNL     1     -73.260 -57.604 -22.791  0.00  0.00    +0.000 C 
BRANCH  20  22
ATOM     22  C   UNL     1     -72.371 -59.849 -23.355  0.00  0.00    +0.000 C 
ATOM     23  C   UNL     1     -71.985 -61.244 -22.841  0.00  0.00    +0.000 C 
BRANCH  23  24
ATOM     24  C   UNL     1     -71.630 -62.536 -22.347  0.00  0.00    +0.000 C 
ATOM     25  C   UNL     1     -71.885 -63.731 -23.123  0.00  0.00    +0.000 C 
ATOM     26  C   UNL     1     -71.567 -65.126 -22.631  0.00  0.00    +0.000 C 
ATOM     27  C   UNL     1     -72.495 -63.692 -24.509  0.00  0.00    +0.000 C 
BRANCH  24  28
ATOM     28  C   UNL     1     -71.016 -62.652 -21.072  0.00  0.00    +0.000 C 
ATOM     29  C   UNL     1     -70.326 -62.713 -19.704  0.00  0.00    +0.000 C 
ENDBRANCH  24  28
ENDBRANCH  23  24
ENDBRANCH  20  22
ENDBRANCH   5  20
BRANCH  19  30
ATOM     30  O   UNL     1     -71.456 -50.122 -30.459  0.00  0.00    +0.000 OA
BRANCH  30  32
ATOM     31  O   UNL     1     -70.208 -48.932 -28.899  0.00  0.00    +0.000 OA
ATOM     32  C   UNL     1     -70.408 -49.361 -30.025  0.00  0.00    +0.000 C 
BRANCH  32  33
ATOM     33  C   UNL     1     -69.462 -49.111 -31.084  0.00  0.00    +0.000 C 
ATOM     34  C   UNL     1     -68.663 -48.892 -31.954  0.00  0.00    +0.000 C 
BRANCH  34  35
ATOM     35  C   UNL     1     -67.705 -48.621 -32.975  0.00  0.00    +0.000 A 
ATOM     36  C   UNL     1     -66.731 -47.646 -32.768  0.00  0.00    +0.000 A 
ATOM     37  C   UNL     1     -67.747 -49.323 -34.176  0.00  0.00    +0.000 A 
ATOM     38  C   UNL     1     -65.786 -47.361 -33.757  0.00  0.00    +0.000 A 
ATOM     39  C   UNL     1     -66.812 -49.050 -35.172  0.00  0.00    +0.000 A 
ATOM     40  C   UNL     1     -65.841 -48.073 -34.959  0.00  0.00    +0.000 A 
BRANCH  38  41
ATOM     41  O   UNL     1     -64.797 -46.417 -33.635  0.00  0.00    +0.000 OA
ATOM     42  C   UNL     1     -65.220 -45.081 -33.727  0.00  0.00    +0.000 C 
ENDBRANCH  38  41
BRANCH  40  43
ATOM     43  O   UNL     1     -64.926 -47.807 -35.941  0.00  0.00    +0.000 OA
ATOM     44  H   UNL     1     -64.551 -46.920 -35.788  0.00  0.00    +0.000 HD
ENDBRANCH  40  43
ENDBRANCH  34  35
ENDBRANCH  32  33
ENDBRANCH  30  32
ENDBRANCH  19  30
TORSDOF 10
ENDMDL
MODEL 9
REMARK VINA RESULT:      -7.1      3.986     13.849
REMARK  Name = 91746246_sitosterol.pdbqt.pdb
REMARK  10 active torsions:
REMARK  status: ('A' for Active; 'I' for Inactive)
REMARK    1  A    between atoms: C_5  and  C_20
REMARK    2  A    between atoms: C_19  and  O_30
REMARK    3  A    between atoms: C_20  and  C_22
REMARK    4  A    between atoms: C_23  and  C_24
REMARK    5  A    between atoms: C_24  and  C_28
REMARK    6  A    between atoms: O_30  and  C_32
REMARK    7  A    between atoms: C_32  and  C_33
REMARK    8  A    between atoms: C_34  and  C_35
REMARK    9  A    between atoms: C_38  and  O_41
REMARK   10  A    between atoms: C_40  and  O_43
REMARK                            x       y       z     vdW  Elec       q    Type
REMARK                         _______ _______ _______ _____ _____    ______ ____
ROOT
ATOM      1  C   UNL     1     -74.956 -55.433 -22.260  0.00  0.00    +0.000 C 
ATOM      2  C   UNL     1     -74.284 -56.697 -23.020  0.00  0.00    +0.000 C 
ATOM      3  C   UNL     1     -74.236 -56.797 -24.493  0.00  0.00    +0.000 C 
ATOM      4  C   UNL     1     -74.543 -55.687 -25.467  0.00  0.00    +0.000 C 
ATOM      5  C   UNL     1     -73.962 -55.135 -21.145  0.00  0.00    +0.000 C 
ATOM      6  C   UNL     1     -75.061 -54.398 -23.288  0.00  0.00    +0.000 C 
ATOM      7  C   UNL     1     -74.529 -55.865 -27.007  0.00  0.00    +0.000 C 
ATOM      8  C   UNL     1     -73.168 -57.123 -22.234  0.00  0.00    +0.000 C 
ATOM      9  C   UNL     1     -74.901 -54.493 -24.786  0.00  0.00    +0.000 C 
ATOM     10  C   UNL     1     -72.959 -56.148 -21.106  0.00  0.00    +0.000 C 
ATOM     11  C   UNL     1     -73.728 -57.956 -25.130  0.00  0.00    +0.000 C 
ATOM     12  C   UNL     1     -76.314 -55.919 -21.687  0.00  0.00    +0.000 C 
ATOM     13  C   UNL     1     -73.721 -57.210 -27.520  0.00  0.00    +0.000 C 
ATOM     14  C   UNL     1     -73.790 -54.741 -27.655  0.00  0.00    +0.000 C 
ATOM     15  C   UNL     1     -73.496 -58.101 -26.604  0.00  0.00    +0.000 C 
ATOM     16  C   UNL     1     -75.993 -55.981 -27.526  0.00  0.00    +0.000 C 
ATOM     17  C   UNL     1     -72.679 -56.972 -28.494  0.00  0.00    +0.000 C 
ATOM     18  C   UNL     1     -72.628 -54.667 -28.659  0.00  0.00    +0.000 C 
ATOM     19  C   UNL     1     -72.013 -55.872 -29.142  0.00  0.00    +0.000 C 
ENDROOT
BRANCH   5  20
ATOM     20  C   UNL     1     -74.159 -54.143 -20.137  0.00  0.00    +0.000 C 
ATOM     21  C   UNL     1     -75.193 -54.292 -19.053  0.00  0.00    +0.000 C 
BRANCH  20  22
ATOM     22  C   UNL     1     -73.565 -52.856 -20.250  0.00  0.00    +0.000 C 
ATOM     23  C   UNL     1     -72.924 -51.464 -20.369  0.00  0.00    +0.000 C 
BRANCH  23  24
ATOM     24  C   UNL     1     -72.344 -50.164 -20.476  0.00  0.00    +0.000 C 
ATOM     25  C   UNL     1     -70.909 -49.987 -20.542  0.00  0.00    +0.000 C 
ATOM     26  C   UNL     1     -70.241 -48.631 -20.614  0.00  0.00    +0.000 C 
ATOM     27  C   UNL     1     -69.940 -51.151 -20.549  0.00  0.00    +0.000 C 
BRANCH  24  28
ATOM     28  C   UNL     1     -73.189 -49.023 -20.517  0.00  0.00    +0.000 C 
ATOM     29  C   UNL     1     -74.057 -47.763 -20.606  0.00  0.00    +0.000 C 
ENDBRANCH  24  28
ENDBRANCH  23  24
ENDBRANCH  20  22
ENDBRANCH   5  20
BRANCH  19  30
ATOM     30  O   UNL     1     -71.667 -56.006 -30.483  0.00  0.00    +0.000 OA
BRANCH  30  32
ATOM     31  O   UNL     1     -69.778 -54.694 -30.140  0.00  0.00    +0.000 OA
ATOM     32  C   UNL     1     -70.392 -55.578 -30.718  0.00  0.00    +0.000 C 
BRANCH  32  33
ATOM     33  C   UNL     1     -69.766 -56.337 -31.772  0.00  0.00    +0.000 C 
ATOM     34  C   UNL     1     -69.241 -56.984 -32.638  0.00  0.00    +0.000 C 
BRANCH  34  35
ATOM     35  C   UNL     1     -68.616 -57.767 -33.653  0.00  0.00    +0.000 A 
ATOM     36  C   UNL     1     -68.277 -59.094 -33.393  0.00  0.00    +0.000 A 
ATOM     37  C   UNL     1     -68.340 -57.205 -34.897  0.00  0.00    +0.000 A 
ATOM     38  C   UNL     1     -67.660 -59.876 -34.373  0.00  0.00    +0.000 A 
ATOM     39  C   UNL     1     -67.724 -57.973 -35.882  0.00  0.00    +0.000 A 
ATOM     40  C   UNL     1     -67.387 -59.299 -35.616  0.00  0.00    +0.000 A 
BRANCH  38  41
ATOM     41  O   UNL     1     -67.292 -61.188 -34.198  0.00  0.00    +0.000 OA
ATOM     42  C   UNL     1     -68.280 -62.138 -34.499  0.00  0.00    +0.000 C 
ENDBRANCH  38  41
BRANCH  40  43
ATOM     43  O   UNL     1     -66.781 -60.048 -36.587  0.00  0.00    +0.000 OA
ATOM     44  H   UNL     1     -66.536 -59.460 -37.327  0.00  0.00    +0.000 HD
ENDBRANCH  40  43
ENDBRANCH  34  35
ENDBRANCH  32  33
ENDBRANCH  30  32
ENDBRANCH  19  30
TORSDOF 10
ENDMDL
