MODEL 1
REMARK VINA RESULT:      -3.7      0.000      0.000
REMARK  Name = 92041_2Ethoxy5fluorouracil.pdbqt.pdb
REMARK  2 active torsions:
REMARK  status: ('A' for Active; 'I' for Inactive)
REMARK    1  A    between atoms: C_5  and  O_10
REMARK    2  A    between atoms: O_10  and  C_11
REMARK                            x       y       z     vdW  Elec       q    Type
REMARK                         _______ _______ _______ _____ _____    ______ ____
ROOT
ATOM      1  F   UNL     1     -64.377 -47.897 -60.823  0.00  0.00    +0.000 F 
ATOM      2  O   UNL     1     -65.007 -46.259 -58.575  0.00  0.00    +0.000 OA
ATOM      3  N   UNL     1     -62.754 -45.919 -58.271  0.00  0.00    +0.000 N 
ATOM      4  N   UNL     1     -61.110 -46.729 -59.766  0.00  0.00    +0.000 NA
ATOM      5  C   UNL     1     -61.433 -46.117 -58.661  0.00  0.00    +0.000 C 
ATOM      6  C   UNL     1     -63.862 -46.373 -58.991  0.00  0.00    +0.000 C 
ATOM      7  C   UNL     1     -63.506 -47.022 -60.293  0.00  0.00    +0.000 C 
ATOM      8  C   UNL     1     -62.222 -47.098 -60.413  0.00  0.00    +0.000 C 
ATOM      9  H   UNL     1     -62.948 -45.474 -57.387  0.00  0.00    +0.000 HD
ENDROOT
BRANCH   5  10
ATOM     10  O   UNL     1     -60.547 -45.610 -57.772  0.00  0.00    +0.000 OA
BRANCH  10  11
ATOM     11  C   UNL     1     -60.268 -44.317 -57.897  0.00  0.00    +0.000 C 
ATOM     12  C   UNL     1     -59.917 -42.839 -58.097  0.00  0.00    +0.000 C 
ENDBRANCH  10  11
ENDBRANCH   5  10
TORSDOF 2
ENDMDL
MODEL 2
REMARK VINA RESULT:      -3.6      2.468      4.428
REMARK  Name = 92041_2Ethoxy5fluorouracil.pdbqt.pdb
REMARK  2 active torsions:
REMARK  status: ('A' for Active; 'I' for Inactive)
REMARK    1  A    between atoms: C_5  and  O_10
REMARK    2  A    between atoms: O_10  and  C_11
REMARK                            x       y       z     vdW  Elec       q    Type
REMARK                         _______ _______ _______ _____ _____    ______ ____
ROOT
ATOM      1  F   UNL     1     -60.394 -45.718 -58.234  0.00  0.00    +0.000 F 
ATOM      2  O   UNL     1     -62.789 -45.742 -56.687  0.00  0.00    +0.000 OA
ATOM      3  N   UNL     1     -63.904 -46.514 -58.542  0.00  0.00    +0.000 N 
ATOM      4  N   UNL     1     -62.817 -47.078 -60.566  0.00  0.00    +0.000 NA
ATOM      5  C   UNL     1     -63.910 -46.928 -59.872  0.00  0.00    +0.000 C 
ATOM      6  C   UNL     1     -62.750 -46.188 -57.826  0.00  0.00    +0.000 C 
ATOM      7  C   UNL     1     -61.484 -46.415 -58.593  0.00  0.00    +0.000 C 
ATOM      8  C   UNL     1     -61.759 -46.782 -59.800  0.00  0.00    +0.000 C 
ATOM      9  H   UNL     1     -64.782 -46.376 -58.063  0.00  0.00    +0.000 HD
ENDROOT
BRANCH   5  10
ATOM     10  O   UNL     1     -65.160 -47.148 -60.342  0.00  0.00    +0.000 OA
BRANCH  10  11
ATOM     11  C   UNL     1     -66.055 -47.566 -59.452  0.00  0.00    +0.000 C 
ATOM     12  C   UNL     1     -67.046 -48.092 -58.409  0.00  0.00    +0.000 C 
ENDBRANCH  10  11
ENDBRANCH   5  10
TORSDOF 2
ENDMDL
MODEL 3
REMARK VINA RESULT:      -3.6      2.596      3.044
REMARK  Name = 92041_2Ethoxy5fluorouracil.pdbqt.pdb
REMARK  2 active torsions:
REMARK  status: ('A' for Active; 'I' for Inactive)
REMARK    1  A    between atoms: C_5  and  O_10
REMARK    2  A    between atoms: O_10  and  C_11
REMARK                            x       y       z     vdW  Elec       q    Type
REMARK                         _______ _______ _______ _____ _____    ______ ____
ROOT
ATOM      1  F   UNL     1     -66.236 -46.464 -57.894  0.00  0.00    +0.000 F 
ATOM      2  O   UNL     1     -66.389 -47.854 -60.379  0.00  0.00    +0.000 OA
ATOM      3  N   UNL     1     -64.167 -47.369 -60.715  0.00  0.00    +0.000 N 
ATOM      4  N   UNL     1     -62.818 -46.293 -59.098  0.00  0.00    +0.000 NA
ATOM      5  C   UNL     1     -62.970 -46.800 -60.288  0.00  0.00    +0.000 C 
ATOM      6  C   UNL     1     -65.329 -47.428 -59.940  0.00  0.00    +0.000 C 
ATOM      7  C   UNL     1     -65.149 -46.904 -58.549  0.00  0.00    +0.000 C 
ATOM      8  C   UNL     1     -63.959 -46.421 -58.409  0.00  0.00    +0.000 C 
ATOM      9  H   UNL     1     -64.243 -47.712 -61.660  0.00  0.00    +0.000 HD
ENDROOT
BRANCH   5  10
ATOM     10  O   UNL     1     -62.009 -46.839 -61.240  0.00  0.00    +0.000 OA
BRANCH  10  11
ATOM     11  C   UNL     1     -61.163 -45.813 -61.259  0.00  0.00    +0.000 C 
ATOM     12  C   UNL     1     -60.224 -44.605 -61.324  0.00  0.00    +0.000 C 
ENDBRANCH  10  11
ENDBRANCH   5  10
TORSDOF 2
ENDMDL
MODEL 4
REMARK VINA RESULT:      -3.6      2.203      2.645
REMARK  Name = 92041_2Ethoxy5fluorouracil.pdbqt.pdb
REMARK  2 active torsions:
REMARK  status: ('A' for Active; 'I' for Inactive)
REMARK    1  A    between atoms: C_5  and  O_10
REMARK    2  A    between atoms: O_10  and  C_11
REMARK                            x       y       z     vdW  Elec       q    Type
REMARK                         _______ _______ _______ _____ _____    ______ ____
ROOT
ATOM      1  F   UNL     1     -61.763 -47.476 -61.441  0.00  0.00    +0.000 F 
ATOM      2  O   UNL     1     -64.471 -47.163 -60.604  0.00  0.00    +0.000 OA
ATOM      3  N   UNL     1     -63.692 -46.487 -58.550  0.00  0.00    +0.000 N 
ATOM      4  N   UNL     1     -61.396 -46.175 -58.075  0.00  0.00    +0.000 NA
ATOM      5  C   UNL     1     -62.640 -46.193 -57.687  0.00  0.00    +0.000 C 
ATOM      6  C   UNL     1     -63.532 -46.823 -59.896  0.00  0.00    +0.000 C 
ATOM      7  C   UNL     1     -62.114 -46.745 -60.370  0.00  0.00    +0.000 C 
ATOM      8  C   UNL     1     -61.332 -46.469 -59.380  0.00  0.00    +0.000 C 
ATOM      9  H   UNL     1     -64.633 -46.526 -58.188  0.00  0.00    +0.000 HD
ENDROOT
BRANCH   5  10
ATOM     10  O   UNL     1     -63.059 -45.935 -56.426  0.00  0.00    +0.000 OA
BRANCH  10  11
ATOM     11  C   UNL     1     -63.839 -44.869 -56.275  0.00  0.00    +0.000 C 
ATOM     12  C   UNL     1     -64.774 -43.662 -56.148  0.00  0.00    +0.000 C 
ENDBRANCH  10  11
ENDBRANCH   5  10
TORSDOF 2
ENDMDL
MODEL 5
REMARK VINA RESULT:      -3.4     19.353     20.124
REMARK  Name = 92041_2Ethoxy5fluorouracil.pdbqt.pdb
REMARK  2 active torsions:
REMARK  status: ('A' for Active; 'I' for Inactive)
REMARK    1  A    between atoms: C_5  and  O_10
REMARK    2  A    between atoms: O_10  and  C_11
REMARK                            x       y       z     vdW  Elec       q    Type
REMARK                         _______ _______ _______ _____ _____    ______ ____
ROOT
ATOM      1  F   UNL     1     -63.888 -61.835 -72.399  0.00  0.00    +0.000 F 
ATOM      2  O   UNL     1     -65.101 -60.798 -70.035  0.00  0.00    +0.000 OA
ATOM      3  N   UNL     1     -66.598 -59.678 -71.371  0.00  0.00    +0.000 N 
ATOM      4  N   UNL     1     -66.674 -59.926 -73.722  0.00  0.00    +0.000 NA
ATOM      5  C   UNL     1     -67.099 -59.356 -72.629  0.00  0.00    +0.000 C 
ATOM      6  C   UNL     1     -65.579 -60.606 -71.145  0.00  0.00    +0.000 C 
ATOM      7  C   UNL     1     -65.125 -61.312 -72.385  0.00  0.00    +0.000 C 
ATOM      8  C   UNL     1     -65.729 -60.824 -73.418  0.00  0.00    +0.000 C 
ATOM      9  H   UNL     1     -66.935 -59.178 -70.562  0.00  0.00    +0.000 HD
ENDROOT
BRANCH   5  10
ATOM     10  O   UNL     1     -68.058 -58.402 -72.579  0.00  0.00    +0.000 OA
BRANCH  10  11
ATOM     11  C   UNL     1     -69.304 -58.834 -72.411  0.00  0.00    +0.000 C 
ATOM     12  C   UNL     1     -70.759 -59.271 -72.216  0.00  0.00    +0.000 C 
ENDBRANCH  10  11
ENDBRANCH   5  10
TORSDOF 2
ENDMDL
MODEL 6
REMARK VINA RESULT:      -3.3     34.908     36.183
REMARK  Name = 92041_2Ethoxy5fluorouracil.pdbqt.pdb
REMARK  2 active torsions:
REMARK  status: ('A' for Active; 'I' for Inactive)
REMARK    1  A    between atoms: C_5  and  O_10
REMARK    2  A    between atoms: O_10  and  C_11
REMARK                            x       y       z     vdW  Elec       q    Type
REMARK                         _______ _______ _______ _____ _____    ______ ____
ROOT
ATOM      1  F   UNL     1     -52.345 -58.005 -89.640  0.00  0.00    +0.000 F 
ATOM      2  O   UNL     1     -52.986 -60.197 -87.932  0.00  0.00    +0.000 OA
ATOM      3  N   UNL     1     -54.127 -61.148 -89.686  0.00  0.00    +0.000 N 
ATOM      4  N   UNL     1     -54.155 -60.227 -91.864  0.00  0.00    +0.000 NA
ATOM      5  C   UNL     1     -54.552 -61.129 -91.012  0.00  0.00    +0.000 C 
ATOM      6  C   UNL     1     -53.268 -60.201 -89.123  0.00  0.00    +0.000 C 
ATOM      7  C   UNL     1     -52.756 -59.196 -90.107  0.00  0.00    +0.000 C 
ATOM      8  C   UNL     1     -53.310 -59.383 -91.259  0.00  0.00    +0.000 C 
ATOM      9  H   UNL     1     -54.496 -61.846 -89.058  0.00  0.00    +0.000 HD
ENDROOT
BRANCH   5  10
ATOM     10  O   UNL     1     -55.408 -62.138 -91.297  0.00  0.00    +0.000 OA
BRANCH  10  11
ATOM     11  C   UNL     1     -55.083 -62.907 -92.332  0.00  0.00    +0.000 C 
ATOM     12  C   UNL     1     -54.739 -63.753 -93.561  0.00  0.00    +0.000 C 
ENDBRANCH  10  11
ENDBRANCH   5  10
TORSDOF 2
ENDMDL
MODEL 7
REMARK VINA RESULT:      -3.2     45.325     45.778
REMARK  Name = 92041_2Ethoxy5fluorouracil.pdbqt.pdb
REMARK  2 active torsions:
REMARK  status: ('A' for Active; 'I' for Inactive)
REMARK    1  A    between atoms: C_5  and  O_10
REMARK    2  A    between atoms: O_10  and  C_11
REMARK                            x       y       z     vdW  Elec       q    Type
REMARK                         _______ _______ _______ _____ _____    ______ ____
ROOT
ATOM      1  F   UNL     1     -64.439 -62.038 -15.702  0.00  0.00    +0.000 F 
ATOM      2  O   UNL     1     -65.836 -60.699 -13.607  0.00  0.00    +0.000 OA
ATOM      3  N   UNL     1     -64.835 -58.741 -14.277  0.00  0.00    +0.000 N 
ATOM      4  N   UNL     1     -63.461 -58.580 -16.196  0.00  0.00    +0.000 NA
ATOM      5  C   UNL     1     -63.995 -58.039 -15.137  0.00  0.00    +0.000 C 
ATOM      6  C   UNL     1     -65.167 -60.090 -14.431  0.00  0.00    +0.000 C 
ATOM      7  C   UNL     1     -64.610 -60.706 -15.677  0.00  0.00    +0.000 C 
ATOM      8  C   UNL     1     -63.855 -59.856 -16.292  0.00  0.00    +0.000 C 
ATOM      9  H   UNL     1     -65.191 -58.285 -13.450  0.00  0.00    +0.000 HD
ENDROOT
BRANCH   5  10
ATOM     10  O   UNL     1     -63.807 -56.757 -14.747  0.00  0.00    +0.000 OA
BRANCH  10  11
ATOM     11  C   UNL     1     -64.671 -55.867 -15.224  0.00  0.00    +0.000 C 
ATOM     12  C   UNL     1     -65.692 -54.886 -15.811  0.00  0.00    +0.000 C 
ENDBRANCH  10  11
ENDBRANCH   5  10
TORSDOF 2
ENDMDL
MODEL 8
REMARK VINA RESULT:      -3.2     23.082     24.349
REMARK  Name = 92041_2Ethoxy5fluorouracil.pdbqt.pdb
REMARK  2 active torsions:
REMARK  status: ('A' for Active; 'I' for Inactive)
REMARK    1  A    between atoms: C_5  and  O_10
REMARK    2  A    between atoms: O_10  and  C_11
REMARK                            x       y       z     vdW  Elec       q    Type
REMARK                         _______ _______ _______ _____ _____    ______ ____
ROOT
ATOM      1  F   UNL     1     -56.651 -68.071 -73.542  0.00  0.00    +0.000 F 
ATOM      2  O   UNL     1     -59.104 -67.085 -74.611  0.00  0.00    +0.000 OA
ATOM      3  N   UNL     1     -59.144 -65.531 -72.918  0.00  0.00    +0.000 N 
ATOM      4  N   UNL     1     -57.381 -65.263 -71.364  0.00  0.00    +0.000 NA
ATOM      5  C   UNL     1     -58.571 -64.946 -71.793  0.00  0.00    +0.000 C 
ATOM      6  C   UNL     1     -58.534 -66.530 -73.681  0.00  0.00    +0.000 C 
ATOM      7  C   UNL     1     -57.143 -66.859 -73.237  0.00  0.00    +0.000 C 
ATOM      8  C   UNL     1     -56.852 -66.195 -72.167  0.00  0.00    +0.000 C 
ATOM      9  H   UNL     1     -60.084 -65.277 -73.183  0.00  0.00    +0.000 HD
ENDROOT
BRANCH   5  10
ATOM     10  O   UNL     1     -59.381 -64.030 -71.213  0.00  0.00    +0.000 OA
BRANCH  10  11
ATOM     11  C   UNL     1     -60.599 -64.451 -70.885  0.00  0.00    +0.000 C 
ATOM     12  C   UNL     1     -61.980 -64.995 -70.507  0.00  0.00    +0.000 C 
ENDBRANCH  10  11
ENDBRANCH   5  10
TORSDOF 2
ENDMDL
MODEL 9
REMARK VINA RESULT:      -3.2     18.737     19.660
REMARK  Name = 92041_2Ethoxy5fluorouracil.pdbqt.pdb
REMARK  2 active torsions:
REMARK  status: ('A' for Active; 'I' for Inactive)
REMARK    1  A    between atoms: C_5  and  O_10
REMARK    2  A    between atoms: O_10  and  C_11
REMARK                            x       y       z     vdW  Elec       q    Type
REMARK                         _______ _______ _______ _____ _____    ______ ____
ROOT
ATOM      1  F   UNL     1     -68.521 -59.707 -74.612  0.00  0.00    +0.000 F 
ATOM      2  O   UNL     1     -68.577 -58.203 -72.189  0.00  0.00    +0.000 OA
ATOM      3  N   UNL     1     -66.776 -59.431 -71.460  0.00  0.00    +0.000 N 
ATOM      4  N   UNL     1     -65.657 -61.017 -72.811  0.00  0.00    +0.000 NA
ATOM      5  C   UNL     1     -65.814 -60.416 -71.665  0.00  0.00    +0.000 C 
ATOM      6  C   UNL     1     -67.687 -59.007 -72.431  0.00  0.00    +0.000 C 
ATOM      7  C   UNL     1     -67.477 -59.645 -73.769  0.00  0.00    +0.000 C 
ATOM      8  C   UNL     1     -66.539 -60.531 -73.694  0.00  0.00    +0.000 C 
ATOM      9  H   UNL     1     -66.881 -59.025 -70.542  0.00  0.00    +0.000 HD
ENDROOT
BRANCH   5  10
ATOM     10  O   UNL     1     -65.081 -60.665 -70.556  0.00  0.00    +0.000 OA
BRANCH  10  11
ATOM     11  C   UNL     1     -65.763 -60.802 -69.422  0.00  0.00    +0.000 C 
ATOM     12  C   UNL     1     -66.494 -60.957 -68.085  0.00  0.00    +0.000 C 
ENDBRANCH  10  11
ENDBRANCH   5  10
TORSDOF 2
ENDMDL
