MODEL 1
REMARK VINA RESULT:      -4.7      0.000      0.000
REMARK  Name = 95716_6Bromoisatin.pdbqt.pdb
REMARK  0 active torsions:
REMARK  status: ('A' for Active; 'I' for Inactive)
REMARK                            x       y       z     vdW  Elec       q    Type
REMARK                         _______ _______ _______ _____ _____    ______ ____
ROOT
ATOM      1 BR   UNL     1     -67.499 -47.575 -58.538  0.00  0.00    +0.000 Br
ATOM      2  O   UNL     1     -60.756 -45.807 -58.153  0.00  0.00    +0.000 OA
ATOM      3  O   UNL     1     -60.590 -45.979 -61.155  0.00  0.00    +0.000 OA
ATOM      4  N   UNL     1     -62.837 -46.539 -60.879  0.00  0.00    +0.000 N 
ATOM      5  C   UNL     1     -63.690 -46.681 -59.788  0.00  0.00    +0.000 A 
ATOM      6  C   UNL     1     -63.030 -46.425 -58.588  0.00  0.00    +0.000 A 
ATOM      7  C   UNL     1     -61.645 -46.091 -58.919  0.00  0.00    +0.000 C 
ATOM      8  C   UNL     1     -65.023 -47.028 -59.816  0.00  0.00    +0.000 A 
ATOM      9  C   UNL     1     -63.655 -46.498 -57.361  0.00  0.00    +0.000 A 
ATOM     10  C   UNL     1     -61.566 -46.182 -60.471  0.00  0.00    +0.000 C 
ATOM     11  C   UNL     1     -65.673 -47.107 -58.583  0.00  0.00    +0.000 A 
ATOM     12  C   UNL     1     -65.006 -46.848 -57.372  0.00  0.00    +0.000 A 
ATOM     13  H   UNL     1     -63.083 -46.672 -61.850  0.00  0.00    +0.000 HD
ENDROOT
TORSDOF 0
ENDMDL
MODEL 2
REMARK VINA RESULT:      -4.2     18.860     19.800
REMARK  Name = 95716_6Bromoisatin.pdbqt.pdb
REMARK  0 active torsions:
REMARK  status: ('A' for Active; 'I' for Inactive)
REMARK                            x       y       z     vdW  Elec       q    Type
REMARK                         _______ _______ _______ _____ _____    ______ ____
ROOT
ATOM      1 BR   UNL     1     -67.304 -59.462 -76.140  0.00  0.00    +0.000 Br
ATOM      2  O   UNL     1     -64.025 -62.210 -70.623  0.00  0.00    +0.000 OA
ATOM      3  O   UNL     1     -65.818 -60.598 -68.817  0.00  0.00    +0.000 OA
ATOM      4  N   UNL     1     -66.659 -59.908 -70.880  0.00  0.00    +0.000 N 
ATOM      5  C   UNL     1     -66.365 -60.196 -72.210  0.00  0.00    +0.000 A 
ATOM      6  C   UNL     1     -65.321 -61.112 -72.314  0.00  0.00    +0.000 A 
ATOM      7  C   UNL     1     -64.903 -61.448 -70.954  0.00  0.00    +0.000 C 
ATOM      8  C   UNL     1     -66.984 -59.679 -73.328  0.00  0.00    +0.000 A 
ATOM      9  C   UNL     1     -64.840 -61.561 -73.526  0.00  0.00    +0.000 A 
ATOM     10  C   UNL     1     -65.832 -60.613 -70.026  0.00  0.00    +0.000 C 
ATOM     11  C   UNL     1     -66.509 -60.123 -74.564  0.00  0.00    +0.000 A 
ATOM     12  C   UNL     1     -65.456 -61.048 -74.668  0.00  0.00    +0.000 A 
ATOM     13  H   UNL     1     -67.374 -59.274 -70.551  0.00  0.00    +0.000 HD
ENDROOT
TORSDOF 0
ENDMDL
MODEL 3
REMARK VINA RESULT:      -4.1     27.648     28.641
REMARK  Name = 95716_6Bromoisatin.pdbqt.pdb
REMARK  0 active torsions:
REMARK  status: ('A' for Active; 'I' for Inactive)
REMARK                            x       y       z     vdW  Elec       q    Type
REMARK                         _______ _______ _______ _____ _____    ______ ____
ROOT
ATOM      1 BR   UNL     1     -72.751 -54.522 -32.789  0.00  0.00    +0.000 Br
ATOM      2  O   UNL     1     -67.110 -58.564 -32.027  0.00  0.00    +0.000 OA
ATOM      3  O   UNL     1     -66.804 -58.618 -35.023  0.00  0.00    +0.000 OA
ATOM      4  N   UNL     1     -68.707 -57.277 -34.873  0.00  0.00    +0.000 N 
ATOM      5  C   UNL     1     -69.483 -56.783 -33.828  0.00  0.00    +0.000 A 
ATOM      6  C   UNL     1     -68.996 -57.196 -32.590  0.00  0.00    +0.000 A 
ATOM      7  C   UNL     1     -67.814 -58.020 -32.844  0.00  0.00    +0.000 C 
ATOM      8  C   UNL     1     -70.601 -55.984 -33.931  0.00  0.00    +0.000 A 
ATOM      9  C   UNL     1     -69.589 -56.841 -31.397  0.00  0.00    +0.000 A 
ATOM     10  C   UNL     1     -67.662 -58.044 -34.392  0.00  0.00    +0.000 C 
ATOM     11  C   UNL     1     -71.215 -55.614 -32.732  0.00  0.00    +0.000 A 
ATOM     12  C   UNL     1     -70.723 -56.032 -31.484  0.00  0.00    +0.000 A 
ATOM     13  H   UNL     1     -68.859 -57.115 -35.858  0.00  0.00    +0.000 HD
ENDROOT
TORSDOF 0
ENDMDL
MODEL 4
REMARK VINA RESULT:      -4.0     26.087     27.374
REMARK  Name = 95716_6Bromoisatin.pdbqt.pdb
REMARK  0 active torsions:
REMARK  status: ('A' for Active; 'I' for Inactive)
REMARK                            x       y       z     vdW  Elec       q    Type
REMARK                         _______ _______ _______ _____ _____    ______ ____
ROOT
ATOM      1 BR   UNL     1     -71.391 -55.399 -31.908  0.00  0.00    +0.000 Br
ATOM      2  O   UNL     1     -66.433 -58.998 -35.256  0.00  0.00    +0.000 OA
ATOM      3  O   UNL     1     -67.712 -58.229 -37.873  0.00  0.00    +0.000 OA
ATOM      4  N   UNL     1     -69.176 -57.145 -36.417  0.00  0.00    +0.000 N 
ATOM      5  C   UNL     1     -69.273 -57.014 -35.035  0.00  0.00    +0.000 A 
ATOM      6  C   UNL     1     -68.248 -57.697 -34.384  0.00  0.00    +0.000 A 
ATOM      7  C   UNL     1     -67.420 -58.320 -35.417  0.00  0.00    +0.000 C 
ATOM      8  C   UNL     1     -70.231 -56.316 -34.332  0.00  0.00    +0.000 A 
ATOM      9  C   UNL     1     -68.120 -57.723 -33.011  0.00  0.00    +0.000 A 
ATOM     10  C   UNL     1     -68.085 -57.919 -36.765  0.00  0.00    +0.000 C 
ATOM     11  C   UNL     1     -70.118 -56.331 -32.940  0.00  0.00    +0.000 A 
ATOM     12  C   UNL     1     -69.083 -57.021 -32.285  0.00  0.00    +0.000 A 
ATOM     13  H   UNL     1     -69.802 -56.742 -37.100  0.00  0.00    +0.000 HD
ENDROOT
TORSDOF 0
ENDMDL
MODEL 5
REMARK VINA RESULT:      -4.0     35.702     37.073
REMARK  Name = 95716_6Bromoisatin.pdbqt.pdb
REMARK  0 active torsions:
REMARK  status: ('A' for Active; 'I' for Inactive)
REMARK                            x       y       z     vdW  Elec       q    Type
REMARK                         _______ _______ _______ _____ _____    ______ ____
ROOT
ATOM      1 BR   UNL     1     -73.875 -56.358 -21.802  0.00  0.00    +0.000 Br
ATOM      2  O   UNL     1     -71.025 -60.576 -26.581  0.00  0.00    +0.000 OA
ATOM      3  O   UNL     1     -71.929 -58.669 -28.730  0.00  0.00    +0.000 OA
ATOM      4  N   UNL     1     -72.748 -57.533 -26.865  0.00  0.00    +0.000 N 
ATOM      5  C   UNL     1     -72.740 -57.761 -25.492  0.00  0.00    +0.000 A 
ATOM      6  C   UNL     1     -72.085 -58.949 -25.175  0.00  0.00    +0.000 A 
ATOM      7  C   UNL     1     -71.632 -59.542 -26.433  0.00  0.00    +0.000 C 
ATOM      8  C   UNL     1     -73.288 -56.959 -24.514  0.00  0.00    +0.000 A 
ATOM      9  C   UNL     1     -71.941 -59.401 -23.880  0.00  0.00    +0.000 A 
ATOM     10  C   UNL     1     -72.102 -58.553 -27.539  0.00  0.00    +0.000 C 
ATOM     11  C   UNL     1     -73.151 -57.400 -23.197  0.00  0.00    +0.000 A 
ATOM     12  C   UNL     1     -72.491 -58.600 -22.878  0.00  0.00    +0.000 A 
ATOM     13  H   UNL     1     -73.161 -56.741 -27.336  0.00  0.00    +0.000 HD
ENDROOT
TORSDOF 0
ENDMDL
MODEL 6
REMARK VINA RESULT:      -3.9     40.399     41.812
REMARK  Name = 95716_6Bromoisatin.pdbqt.pdb
REMARK  0 active torsions:
REMARK  status: ('A' for Active; 'I' for Inactive)
REMARK                            x       y       z     vdW  Elec       q    Type
REMARK                         _______ _______ _______ _____ _____    ______ ____
ROOT
ATOM      1 BR   UNL     1     -45.807 -57.865 -93.519  0.00  0.00    +0.000 Br
ATOM      2  O   UNL     1     -43.826 -64.182 -91.304  0.00  0.00    +0.000 OA
ATOM      3  O   UNL     1     -42.437 -64.617 -93.941  0.00  0.00    +0.000 OA
ATOM      4  N   UNL     1     -43.277 -62.474 -94.318  0.00  0.00    +0.000 N 
ATOM      5  C   UNL     1     -44.035 -61.569 -93.579  0.00  0.00    +0.000 A 
ATOM      6  C   UNL     1     -44.358 -62.080 -92.324  0.00  0.00    +0.000 A 
ATOM      7  C   UNL     1     -43.769 -63.415 -92.235  0.00  0.00    +0.000 C 
ATOM      8  C   UNL     1     -44.448 -60.315 -93.974  0.00  0.00    +0.000 A 
ATOM      9  C   UNL     1     -45.104 -61.377 -91.401  0.00  0.00    +0.000 A 
ATOM     10  C   UNL     1     -43.053 -63.634 -93.600  0.00  0.00    +0.000 C 
ATOM     11  C   UNL     1     -45.204 -59.589 -93.052  0.00  0.00    +0.000 A 
ATOM     12  C   UNL     1     -45.530 -60.105 -91.786  0.00  0.00    +0.000 A 
ATOM     13  H   UNL     1     -42.923 -62.332 -95.253  0.00  0.00    +0.000 HD
ENDROOT
TORSDOF 0
ENDMDL
MODEL 7
REMARK VINA RESULT:      -3.8     18.890     19.819
REMARK  Name = 95716_6Bromoisatin.pdbqt.pdb
REMARK  0 active torsions:
REMARK  status: ('A' for Active; 'I' for Inactive)
REMARK                            x       y       z     vdW  Elec       q    Type
REMARK                         _______ _______ _______ _____ _____    ______ ____
ROOT
ATOM      1 BR   UNL     1     -63.879 -64.152 -68.447  0.00  0.00    +0.000 Br
ATOM      2  O   UNL     1     -65.611 -60.668 -74.244  0.00  0.00    +0.000 OA
ATOM      3  O   UNL     1     -67.100 -58.678 -72.544  0.00  0.00    +0.000 OA
ATOM      4  N   UNL     1     -66.329 -60.094 -70.859  0.00  0.00    +0.000 N 
ATOM      5  C   UNL     1     -65.562 -61.255 -70.824  0.00  0.00    +0.000 A 
ATOM      6  C   UNL     1     -65.173 -61.650 -72.102  0.00  0.00    +0.000 A 
ATOM      7  C   UNL     1     -65.726 -60.675 -73.042  0.00  0.00    +0.000 C 
ATOM      8  C   UNL     1     -65.197 -61.975 -69.706  0.00  0.00    +0.000 A 
ATOM      9  C   UNL     1     -64.406 -62.771 -72.337  0.00  0.00    +0.000 A 
ATOM     10  C   UNL     1     -66.494 -59.650 -72.158  0.00  0.00    +0.000 C 
ATOM     11  C   UNL     1     -64.419 -63.114 -69.925  0.00  0.00    +0.000 A 
ATOM     12  C   UNL     1     -64.027 -63.511 -71.216  0.00  0.00    +0.000 A 
ATOM     13  H   UNL     1     -66.725 -59.616 -70.062  0.00  0.00    +0.000 HD
ENDROOT
TORSDOF 0
ENDMDL
MODEL 8
REMARK VINA RESULT:      -3.7     21.572     22.809
REMARK  Name = 95716_6Bromoisatin.pdbqt.pdb
REMARK  0 active torsions:
REMARK  status: ('A' for Active; 'I' for Inactive)
REMARK                            x       y       z     vdW  Elec       q    Type
REMARK                         _______ _______ _______ _____ _____    ______ ____
ROOT
ATOM      1 BR   UNL     1     -62.693 -46.664 -39.784  0.00  0.00    +0.000 Br
ATOM      2  O   UNL     1     -66.500 -48.309 -34.168  0.00  0.00    +0.000 OA
ATOM      3  O   UNL     1     -68.997 -47.861 -35.791  0.00  0.00    +0.000 OA
ATOM      4  N   UNL     1     -67.406 -47.378 -37.426  0.00  0.00    +0.000 N 
ATOM      5  C   UNL     1     -66.015 -47.355 -37.470  0.00  0.00    +0.000 A 
ATOM      6  C   UNL     1     -65.460 -47.705 -36.241  0.00  0.00    +0.000 A 
ATOM      7  C   UNL     1     -66.569 -47.976 -35.327  0.00  0.00    +0.000 C 
ATOM      8  C   UNL     1     -65.223 -47.038 -38.553  0.00  0.00    +0.000 A 
ATOM      9  C   UNL     1     -64.099 -47.757 -36.023  0.00  0.00    +0.000 A 
ATOM     10  C   UNL     1     -67.856 -47.743 -36.171  0.00  0.00    +0.000 C 
ATOM     11  C   UNL     1     -63.842 -47.085 -38.351  0.00  0.00    +0.000 A 
ATOM     12  C   UNL     1     -63.283 -47.438 -37.110  0.00  0.00    +0.000 A 
ATOM     13  H   UNL     1     -68.031 -47.163 -38.191  0.00  0.00    +0.000 HD
ENDROOT
TORSDOF 0
ENDMDL
MODEL 9
REMARK VINA RESULT:      -3.7     27.680     28.320
REMARK  Name = 95716_6Bromoisatin.pdbqt.pdb
REMARK  0 active torsions:
REMARK  status: ('A' for Active; 'I' for Inactive)
REMARK                            x       y       z     vdW  Elec       q    Type
REMARK                         _______ _______ _______ _____ _____    ______ ____
ROOT
ATOM      1 BR   UNL     1     -72.391 -55.810 -35.833  0.00  0.00    +0.000 Br
ATOM      2  O   UNL     1     -67.240 -58.516 -31.975  0.00  0.00    +0.000 OA
ATOM      3  O   UNL     1     -67.119 -60.856 -33.868  0.00  0.00    +0.000 OA
ATOM      4  N   UNL     1     -68.835 -59.649 -34.887  0.00  0.00    +0.000 N 
ATOM      5  C   UNL     1     -69.484 -58.447 -34.623  0.00  0.00    +0.000 A 
ATOM      6  C   UNL     1     -68.978 -57.834 -33.478  0.00  0.00    +0.000 A 
ATOM      7  C   UNL     1     -67.921 -58.699 -32.956  0.00  0.00    +0.000 C 
ATOM      8  C   UNL     1     -70.503 -57.875 -35.354  0.00  0.00    +0.000 A 
ATOM      9  C   UNL     1     -69.453 -56.630 -33.003  0.00  0.00    +0.000 A 
ATOM     10  C   UNL     1     -67.863 -59.906 -33.938  0.00  0.00    +0.000 C 
ATOM     11  C   UNL     1     -70.997 -56.655 -34.887  0.00  0.00    +0.000 A 
ATOM     12  C   UNL     1     -70.485 -56.038 -33.732  0.00  0.00    +0.000 A 
ATOM     13  H   UNL     1     -69.024 -60.273 -35.659  0.00  0.00    +0.000 HD
ENDROOT
TORSDOF 0
ENDMDL
