MODEL 1
REMARK VINA RESULT:      -6.1      0.000      0.000
REMARK  Name = 969516_Curcumin.pdbqt.pdb
REMARK  8 active torsions:
REMARK  status: ('A' for Active; 'I' for Inactive)
REMARK    1  A    between atoms: C_3  and  C_5
REMARK    2  A    between atoms: C_4  and  C_6
REMARK    3  A    between atoms: C_8  and  O_12
REMARK    4  A    between atoms: C_10  and  O_14
REMARK    5  A    between atoms: C_17  and  C_19
REMARK    6  A    between atoms: C_18  and  C_20
REMARK    7  A    between atoms: C_22  and  O_26
REMARK    8  A    between atoms: C_24  and  O_28
REMARK                            x       y       z     vdW  Elec       q    Type
REMARK                         _______ _______ _______ _____ _____    ______ ____
ROOT
ATOM      1  C   UNL     1     -71.441 -57.225 -28.968  0.00  0.00    +0.000 C 
ATOM      2  O   UNL     1     -72.650 -59.138 -28.602  0.00  0.00    +0.000 OA
ATOM      3  C   UNL     1     -72.273 -58.060 -28.167  0.00  0.00    +0.000 C 
ATOM      4  O   UNL     1     -70.479 -55.210 -29.487  0.00  0.00    +0.000 OA
ATOM      5  C   UNL     1     -70.612 -56.391 -29.773  0.00  0.00    +0.000 C 
ENDROOT
BRANCH   3   7
ATOM      6  C   UNL     1     -72.986 -57.269 -25.748  0.00  0.00    +0.000 C 
ATOM      7  C   UNL     1     -72.662 -57.628 -26.848  0.00  0.00    +0.000 C 
BRANCH   6   8
ATOM      8  C   UNL     1     -73.370 -56.844 -24.441  0.00  0.00    +0.000 A 
ATOM      9  C   UNL     1     -74.135 -55.690 -24.283  0.00  0.00    +0.000 A 
ATOM     10  C   UNL     1     -74.520 -55.259 -23.010  0.00  0.00    +0.000 A 
ATOM     11  C   UNL     1     -72.979 -57.581 -23.327  0.00  0.00    +0.000 A 
ATOM     12  C   UNL     1     -74.123 -56.008 -21.898  0.00  0.00    +0.000 A 
ATOM     13  C   UNL     1     -73.357 -57.162 -22.054  0.00  0.00    +0.000 A 
BRANCH  10  14
ATOM     14  O   UNL     1     -75.274 -54.135 -22.777  0.00  0.00    +0.000 OA
ATOM     15  C   UNL     1     -75.394 -53.242 -23.848  0.00  0.00    +0.000 C 
ENDBRANCH  10  14
BRANCH  12  16
ATOM     16  O   UNL     1     -74.451 -55.665 -20.615  0.00  0.00    +0.000 OA
ATOM     17  H   UNL     1     -73.763 -55.961 -19.995  0.00  0.00    +0.000 HD
ENDBRANCH  12  16
ENDBRANCH   6   8
ENDBRANCH   3   7
BRANCH   5  19
ATOM     18  C   UNL     1     -69.375 -57.410 -31.874  0.00  0.00    +0.000 C 
ATOM     19  C   UNL     1     -69.936 -56.945 -30.918  0.00  0.00    +0.000 C 
BRANCH  18  20
ATOM     20  C   UNL     1     -68.709 -57.966 -33.005  0.00  0.00    +0.000 A 
ATOM     21  C   UNL     1     -68.305 -59.300 -32.987  0.00  0.00    +0.000 A 
ATOM     22  C   UNL     1     -67.653 -59.860 -34.089  0.00  0.00    +0.000 A 
ATOM     23  C   UNL     1     -68.464 -57.176 -34.127  0.00  0.00    +0.000 A 
ATOM     24  C   UNL     1     -67.414 -59.057 -35.207  0.00  0.00    +0.000 A 
ATOM     25  C   UNL     1     -67.815 -57.722 -35.230  0.00  0.00    +0.000 A 
BRANCH  22  26
ATOM     26  O   UNL     1     -67.222 -61.163 -34.154  0.00  0.00    +0.000 OA
ATOM     27  C   UNL     1     -68.190 -62.102 -34.543  0.00  0.00    +0.000 C 
ENDBRANCH  22  26
BRANCH  24  28
ATOM     28  O   UNL     1     -66.776 -59.587 -36.295  0.00  0.00    +0.000 OA
ATOM     29  H   UNL     1     -67.337 -59.451 -37.082  0.00  0.00    +0.000 HD
ENDBRANCH  24  28
ENDBRANCH  18  20
ENDBRANCH   5  19
TORSDOF 8
ENDMDL
MODEL 2
REMARK VINA RESULT:      -6.1      0.105     11.854
REMARK  Name = 969516_Curcumin.pdbqt.pdb
REMARK  8 active torsions:
REMARK  status: ('A' for Active; 'I' for Inactive)
REMARK    1  A    between atoms: C_3  and  C_5
REMARK    2  A    between atoms: C_4  and  C_6
REMARK    3  A    between atoms: C_8  and  O_12
REMARK    4  A    between atoms: C_10  and  O_14
REMARK    5  A    between atoms: C_17  and  C_19
REMARK    6  A    between atoms: C_18  and  C_20
REMARK    7  A    between atoms: C_22  and  O_26
REMARK    8  A    between atoms: C_24  and  O_28
REMARK                            x       y       z     vdW  Elec       q    Type
REMARK                         _______ _______ _______ _____ _____    ______ ____
ROOT
ATOM      1  C   UNL     1     -71.453 -57.176 -28.978  0.00  0.00    +0.000 C 
ATOM      2  O   UNL     1     -70.327 -55.225 -29.401  0.00  0.00    +0.000 OA
ATOM      3  C   UNL     1     -70.543 -56.380 -29.734  0.00  0.00    +0.000 C 
ATOM      4  O   UNL     1     -72.817 -58.997 -28.703  0.00  0.00    +0.000 OA
ATOM      5  C   UNL     1     -72.367 -57.967 -28.224  0.00  0.00    +0.000 C 
ENDROOT
BRANCH   3   7
ATOM      6  C   UNL     1     -69.333 -57.418 -31.842  0.00  0.00    +0.000 C 
ATOM      7  C   UNL     1     -69.883 -56.946 -30.884  0.00  0.00    +0.000 C 
BRANCH   6   8
ATOM      8  C   UNL     1     -68.682 -57.978 -32.981  0.00  0.00    +0.000 A 
ATOM      9  C   UNL     1     -68.308 -59.321 -32.976  0.00  0.00    +0.000 A 
ATOM     10  C   UNL     1     -67.669 -59.887 -34.084  0.00  0.00    +0.000 A 
ATOM     11  C   UNL     1     -68.420 -57.184 -34.094  0.00  0.00    +0.000 A 
ATOM     12  C   UNL     1     -67.412 -59.080 -35.196  0.00  0.00    +0.000 A 
ATOM     13  C   UNL     1     -67.785 -57.736 -35.202  0.00  0.00    +0.000 A 
BRANCH  10  14
ATOM     14  O   UNL     1     -67.273 -61.199 -34.153  0.00  0.00    +0.000 OA
ATOM     15  C   UNL     1     -68.263 -62.123 -34.511  0.00  0.00    +0.000 C 
ENDBRANCH  10  14
BRANCH  12  16
ATOM     16  O   UNL     1     -66.792 -59.543 -36.325  0.00  0.00    +0.000 OA
ATOM     17  H   UNL     1     -67.217 -59.183 -37.121  0.00  0.00    +0.000 HD
ENDBRANCH  12  16
ENDBRANCH   6   8
ENDBRANCH   3   7
BRANCH   5  19
ATOM     18  C   UNL     1     -73.069 -57.198 -25.796  0.00  0.00    +0.000 C 
ATOM     19  C   UNL     1     -72.752 -57.549 -26.900  0.00  0.00    +0.000 C 
BRANCH  18  20
ATOM     20  C   UNL     1     -73.441 -56.783 -24.483  0.00  0.00    +0.000 A 
ATOM     21  C   UNL     1     -74.219 -55.639 -24.311  0.00  0.00    +0.000 A 
ATOM     22  C   UNL     1     -74.592 -55.220 -23.031  0.00  0.00    +0.000 A 
ATOM     23  C   UNL     1     -73.029 -57.522 -23.376  0.00  0.00    +0.000 A 
ATOM     24  C   UNL     1     -74.172 -55.970 -21.930  0.00  0.00    +0.000 A 
ATOM     25  C   UNL     1     -73.395 -57.115 -22.096  0.00  0.00    +0.000 A 
BRANCH  22  26
ATOM     26  O   UNL     1     -75.354 -54.106 -22.773  0.00  0.00    +0.000 OA
ATOM     27  C   UNL     1     -75.609 -53.278 -23.877  0.00  0.00    +0.000 C 
ENDBRANCH  22  26
BRANCH  24  28
ATOM     28  O   UNL     1     -74.527 -55.576 -20.669  0.00  0.00    +0.000 OA
ATOM     29  H   UNL     1     -74.852 -54.656 -20.708  0.00  0.00    +0.000 HD
ENDBRANCH  24  28
ENDBRANCH  18  20
ENDBRANCH   5  19
TORSDOF 8
ENDMDL
MODEL 3
REMARK VINA RESULT:      -5.7      2.763      4.505
REMARK  Name = 969516_Curcumin.pdbqt.pdb
REMARK  8 active torsions:
REMARK  status: ('A' for Active; 'I' for Inactive)
REMARK    1  A    between atoms: C_3  and  C_5
REMARK    2  A    between atoms: C_4  and  C_6
REMARK    3  A    between atoms: C_8  and  O_12
REMARK    4  A    between atoms: C_10  and  O_14
REMARK    5  A    between atoms: C_17  and  C_19
REMARK    6  A    between atoms: C_18  and  C_20
REMARK    7  A    between atoms: C_22  and  O_26
REMARK    8  A    between atoms: C_24  and  O_28
REMARK                            x       y       z     vdW  Elec       q    Type
REMARK                         _______ _______ _______ _____ _____    ______ ____
ROOT
ATOM      1  C   UNL     1     -69.584 -57.053 -31.863  0.00  0.00    +0.000 C 
ATOM      2  O   UNL     1     -71.355 -55.598 -31.876  0.00  0.00    +0.000 OA
ATOM      3  C   UNL     1     -70.709 -56.426 -31.252  0.00  0.00    +0.000 C 
ATOM      4  O   UNL     1     -67.639 -58.263 -31.784  0.00  0.00    +0.000 OA
ATOM      5  C   UNL     1     -68.458 -57.675 -32.475  0.00  0.00    +0.000 C 
ENDROOT
BRANCH   3   7
ATOM      6  C   UNL     1     -71.384 -57.069 -28.779  0.00  0.00    +0.000 C 
ATOM      7  C   UNL     1     -71.078 -56.776 -29.903  0.00  0.00    +0.000 C 
BRANCH   6   8
ATOM      8  C   UNL     1     -71.747 -57.416 -27.444  0.00  0.00    +0.000 A 
ATOM      9  C   UNL     1     -72.915 -56.900 -26.884  0.00  0.00    +0.000 A 
ATOM     10  C   UNL     1     -73.285 -57.230 -25.577  0.00  0.00    +0.000 A 
ATOM     11  C   UNL     1     -70.934 -58.268 -26.701  0.00  0.00    +0.000 A 
ATOM     12  C   UNL     1     -72.462 -58.088 -24.841  0.00  0.00    +0.000 A 
ATOM     13  C   UNL     1     -71.293 -58.605 -25.399  0.00  0.00    +0.000 A 
BRANCH  10  14
ATOM     14  O   UNL     1     -74.419 -56.762 -24.961  0.00  0.00    +0.000 OA
ATOM     15  C   UNL     1     -74.487 -55.377 -24.766  0.00  0.00    +0.000 C 
ENDBRANCH  10  14
BRANCH  12  16
ATOM     16  O   UNL     1     -72.741 -58.467 -23.557  0.00  0.00    +0.000 OA
ATOM     17  H   UNL     1     -72.748 -57.695 -22.966  0.00  0.00    +0.000 HD
ENDBRANCH  12  16
ENDBRANCH   6   8
ENDBRANCH   3   7
BRANCH   5  19
ATOM     18  C   UNL     1     -68.158 -57.554 -35.097  0.00  0.00    +0.000 C 
ATOM     19  C   UNL     1     -68.292 -57.609 -33.905  0.00  0.00    +0.000 C 
BRANCH  18  20
ATOM     20  C   UNL     1     -68.001 -57.495 -36.514  0.00  0.00    +0.000 A 
ATOM     21  C   UNL     1     -67.819 -56.263 -37.141  0.00  0.00    +0.000 A 
ATOM     22  C   UNL     1     -67.663 -56.188 -38.528  0.00  0.00    +0.000 A 
ATOM     23  C   UNL     1     -68.029 -58.666 -37.267  0.00  0.00    +0.000 A 
ATOM     24  C   UNL     1     -67.692 -57.371 -39.271  0.00  0.00    +0.000 A 
ATOM     25  C   UNL     1     -67.874 -58.605 -38.649  0.00  0.00    +0.000 A 
BRANCH  22  26
ATOM     26  O   UNL     1     -67.479 -55.018 -39.224  0.00  0.00    +0.000 OA
ATOM     27  C   UNL     1     -68.616 -54.204 -39.350  0.00  0.00    +0.000 C 
ENDBRANCH  22  26
BRANCH  24  28
ATOM     28  O   UNL     1     -67.541 -57.318 -40.630  0.00  0.00    +0.000 OA
ATOM     29  H   UNL     1     -68.353 -56.943 -41.020  0.00  0.00    +0.000 HD
ENDBRANCH  24  28
ENDBRANCH  18  20
ENDBRANCH   5  19
TORSDOF 8
ENDMDL
MODEL 4
REMARK VINA RESULT:      -5.6      3.076      5.301
REMARK  Name = 969516_Curcumin.pdbqt.pdb
REMARK  8 active torsions:
REMARK  status: ('A' for Active; 'I' for Inactive)
REMARK    1  A    between atoms: C_3  and  C_5
REMARK    2  A    between atoms: C_4  and  C_6
REMARK    3  A    between atoms: C_8  and  O_12
REMARK    4  A    between atoms: C_10  and  O_14
REMARK    5  A    between atoms: C_17  and  C_19
REMARK    6  A    between atoms: C_18  and  C_20
REMARK    7  A    between atoms: C_22  and  O_26
REMARK    8  A    between atoms: C_24  and  O_28
REMARK                            x       y       z     vdW  Elec       q    Type
REMARK                         _______ _______ _______ _____ _____    ______ ____
ROOT
ATOM      1  C   UNL     1     -69.717 -57.487 -31.992  0.00  0.00    +0.000 C 
ATOM      2  O   UNL     1     -71.776 -56.479 -32.028  0.00  0.00    +0.000 OA
ATOM      3  C   UNL     1     -70.966 -57.141 -31.396  0.00  0.00    +0.000 C 
ATOM      4  O   UNL     1     -67.547 -58.216 -31.886  0.00  0.00    +0.000 OA
ATOM      5  C   UNL     1     -68.469 -57.827 -32.588  0.00  0.00    +0.000 C 
ENDROOT
BRANCH   3   7
ATOM      6  C   UNL     1     -71.512 -57.938 -28.937  0.00  0.00    +0.000 C 
ATOM      7  C   UNL     1     -71.264 -57.576 -30.055  0.00  0.00    +0.000 C 
BRANCH   6   8
ATOM      8  C   UNL     1     -71.808 -58.366 -27.608  0.00  0.00    +0.000 A 
ATOM      9  C   UNL     1     -71.678 -59.712 -27.267  0.00  0.00    +0.000 A 
ATOM     10  C   UNL     1     -71.964 -60.149 -25.971  0.00  0.00    +0.000 A 
ATOM     11  C   UNL     1     -72.227 -57.441 -26.656  0.00  0.00    +0.000 A 
ATOM     12  C   UNL     1     -72.383 -59.211 -25.022  0.00  0.00    +0.000 A 
ATOM     13  C   UNL     1     -72.513 -57.865 -25.361  0.00  0.00    +0.000 A 
BRANCH  10  14
ATOM     14  O   UNL     1     -71.857 -61.455 -25.561  0.00  0.00    +0.000 OA
ATOM     15  C   UNL     1     -72.905 -62.305 -25.938  0.00  0.00    +0.000 C 
ENDBRANCH  10  14
BRANCH  12  16
ATOM     16  O   UNL     1     -72.684 -59.544 -23.730  0.00  0.00    +0.000 OA
ATOM     17  H   UNL     1     -72.901 -60.489 -23.661  0.00  0.00    +0.000 HD
ENDBRANCH  12  16
ENDBRANCH   6   8
ENDBRANCH   3   7
BRANCH   5  19
ATOM     18  C   UNL     1     -68.159 -57.618 -35.203  0.00  0.00    +0.000 C 
ATOM     19  C   UNL     1     -68.302 -57.714 -34.014  0.00  0.00    +0.000 C 
BRANCH  18  20
ATOM     20  C   UNL     1     -67.989 -57.498 -36.614  0.00  0.00    +0.000 A 
ATOM     21  C   UNL     1     -67.822 -56.239 -37.189  0.00  0.00    +0.000 A 
ATOM     22  C   UNL     1     -67.653 -56.106 -38.570  0.00  0.00    +0.000 A 
ATOM     23  C   UNL     1     -67.988 -58.639 -37.414  0.00  0.00    +0.000 A 
ATOM     24  C   UNL     1     -67.654 -57.258 -39.361  0.00  0.00    +0.000 A 
ATOM     25  C   UNL     1     -67.820 -58.519 -38.791  0.00  0.00    +0.000 A 
BRANCH  22  26
ATOM     26  O   UNL     1     -67.483 -54.906 -39.217  0.00  0.00    +0.000 OA
ATOM     27  C   UNL     1     -68.642 -54.128 -39.362  0.00  0.00    +0.000 C 
ENDBRANCH  22  26
BRANCH  24  28
ATOM     28  O   UNL     1     -67.489 -57.149 -40.714  0.00  0.00    +0.000 OA
ATOM     29  H   UNL     1     -68.019 -56.394 -41.034  0.00  0.00    +0.000 HD
ENDBRANCH  24  28
ENDBRANCH  18  20
ENDBRANCH   5  19
TORSDOF 8
ENDMDL
MODEL 5
REMARK VINA RESULT:      -5.5      1.139     11.721
REMARK  Name = 969516_Curcumin.pdbqt.pdb
REMARK  8 active torsions:
REMARK  status: ('A' for Active; 'I' for Inactive)
REMARK    1  A    between atoms: C_3  and  C_5
REMARK    2  A    between atoms: C_4  and  C_6
REMARK    3  A    between atoms: C_8  and  O_12
REMARK    4  A    between atoms: C_10  and  O_14
REMARK    5  A    between atoms: C_17  and  C_19
REMARK    6  A    between atoms: C_18  and  C_20
REMARK    7  A    between atoms: C_22  and  O_26
REMARK    8  A    between atoms: C_24  and  O_28
REMARK                            x       y       z     vdW  Elec       q    Type
REMARK                         _______ _______ _______ _____ _____    ______ ____
ROOT
ATOM      1  C   UNL     1     -71.654 -56.193 -29.709  0.00  0.00    +0.000 C 
ATOM      2  O   UNL     1     -69.695 -55.027 -29.467  0.00  0.00    +0.000 OA
ATOM      3  C   UNL     1     -70.314 -55.880 -30.085  0.00  0.00    +0.000 C 
ATOM      4  O   UNL     1     -73.713 -57.115 -30.108  0.00  0.00    +0.000 OA
ATOM      5  C   UNL     1     -72.993 -56.501 -29.335  0.00  0.00    +0.000 C 
ENDROOT
BRANCH   3   7
ATOM      6  C   UNL     1     -69.187 -57.155 -32.106  0.00  0.00    +0.000 C 
ATOM      7  C   UNL     1     -69.699 -56.575 -31.187  0.00  0.00    +0.000 C 
BRANCH   6   8
ATOM      8  C   UNL     1     -68.580 -57.845 -33.198  0.00  0.00    +0.000 A 
ATOM      9  C   UNL     1     -68.198 -59.178 -33.051  0.00  0.00    +0.000 A 
ATOM     10  C   UNL     1     -67.602 -59.869 -34.110  0.00  0.00    +0.000 A 
ATOM     11  C   UNL     1     -68.370 -57.187 -34.406  0.00  0.00    +0.000 A 
ATOM     12  C   UNL     1     -67.396 -59.198 -35.320  0.00  0.00    +0.000 A 
ATOM     13  C   UNL     1     -67.778 -57.865 -35.468  0.00  0.00    +0.000 A 
BRANCH  10  14
ATOM     14  O   UNL     1     -67.201 -61.180 -34.041  0.00  0.00    +0.000 OA
ATOM     15  C   UNL     1     -68.114 -62.128 -34.519  0.00  0.00    +0.000 C 
ENDBRANCH  10  14
BRANCH  12  16
ATOM     16  O   UNL     1     -66.822 -59.790 -36.411  0.00  0.00    +0.000 OA
ATOM     17  H   UNL     1     -66.179 -60.465 -36.135  0.00  0.00    +0.000 HD
ENDBRANCH  12  16
ENDBRANCH   6   8
ENDBRANCH   3   7
BRANCH   5  19
ATOM     18  C   UNL     1     -73.903 -55.740 -26.974  0.00  0.00    +0.000 C 
ATOM     19  C   UNL     1     -73.489 -56.088 -28.047  0.00  0.00    +0.000 C 
BRANCH  18  20
ATOM     20  C   UNL     1     -74.389 -55.324 -25.700  0.00  0.00    +0.000 A 
ATOM     21  C   UNL     1     -74.107 -56.085 -24.566  0.00  0.00    +0.000 A 
ATOM     22  C   UNL     1     -74.576 -55.689 -23.310  0.00  0.00    +0.000 A 
ATOM     23  C   UNL     1     -75.144 -54.157 -25.589  0.00  0.00    +0.000 A 
ATOM     24  C   UNL     1     -75.332 -54.518 -23.215  0.00  0.00    +0.000 A 
ATOM     25  C   UNL     1     -75.617 -53.753 -24.344  0.00  0.00    +0.000 A 
BRANCH  22  26
ATOM     26  O   UNL     1     -74.345 -56.380 -22.145  0.00  0.00    +0.000 OA
ATOM     27  C   UNL     1     -73.167 -57.143 -22.118  0.00  0.00    +0.000 C 
ENDBRANCH  22  26
BRANCH  24  28
ATOM     28  O   UNL     1     -75.800 -54.115 -21.994  0.00  0.00    +0.000 OA
ATOM     29  H   UNL     1     -75.043 -54.018 -21.385  0.00  0.00    +0.000 HD
ENDBRANCH  24  28
ENDBRANCH  18  20
ENDBRANCH   5  19
TORSDOF 8
ENDMDL
MODEL 6
REMARK VINA RESULT:      -5.5     43.749     50.546
REMARK  Name = 969516_Curcumin.pdbqt.pdb
REMARK  8 active torsions:
REMARK  status: ('A' for Active; 'I' for Inactive)
REMARK    1  A    between atoms: C_3  and  C_5
REMARK    2  A    between atoms: C_4  and  C_6
REMARK    3  A    between atoms: C_8  and  O_12
REMARK    4  A    between atoms: C_10  and  O_14
REMARK    5  A    between atoms: C_17  and  C_19
REMARK    6  A    between atoms: C_18  and  C_20
REMARK    7  A    between atoms: C_22  and  O_26
REMARK    8  A    between atoms: C_24  and  O_28
REMARK                            x       y       z     vdW  Elec       q    Type
REMARK                         _______ _______ _______ _____ _____    ______ ____
ROOT
ATOM      1  C   UNL     1     -62.933 -58.996 -78.744  0.00  0.00    +0.000 C 
ATOM      2  O   UNL     1     -62.293 -61.180 -78.468  0.00  0.00    +0.000 OA
ATOM      3  C   UNL     1     -63.004 -60.261 -78.090  0.00  0.00    +0.000 C 
ATOM      4  O   UNL     1     -63.758 -56.917 -79.244  0.00  0.00    +0.000 OA
ATOM      5  C   UNL     1     -62.863 -57.735 -79.402  0.00  0.00    +0.000 C 
ENDROOT
BRANCH   3   7
ATOM      6  C   UNL     1     -64.669 -60.600 -76.066  0.00  0.00    +0.000 C 
ATOM      7  C   UNL     1     -63.912 -60.446 -76.986  0.00  0.00    +0.000 C 
BRANCH   6   8
ATOM      8  C   UNL     1     -65.568 -60.786 -74.974  0.00  0.00    +0.000 A 
ATOM      9  C   UNL     1     -65.076 -61.172 -73.728  0.00  0.00    +0.000 A 
ATOM     10  C   UNL     1     -65.943 -61.358 -72.647  0.00  0.00    +0.000 A 
ATOM     11  C   UNL     1     -66.933 -60.581 -75.153  0.00  0.00    +0.000 A 
ATOM     12  C   UNL     1     -67.312 -61.149 -72.839  0.00  0.00    +0.000 A 
ATOM     13  C   UNL     1     -67.805 -60.763 -74.084  0.00  0.00    +0.000 A 
BRANCH  10  14
ATOM     14  O   UNL     1     -65.533 -61.736 -71.392  0.00  0.00    +0.000 OA
ATOM     15  C   UNL     1     -64.257 -62.306 -71.308  0.00  0.00    +0.000 C 
ENDBRANCH  10  14
BRANCH  12  16
ATOM     16  O   UNL     1     -68.236 -61.307 -71.842  0.00  0.00    +0.000 OA
ATOM     17  H   UNL     1     -69.106 -61.528 -72.213  0.00  0.00    +0.000 HD
ENDBRANCH  12  16
ENDBRANCH   6   8
ENDBRANCH   3   7
BRANCH   5  19
ATOM     18  C   UNL     1     -60.799 -57.173 -80.953  0.00  0.00    +0.000 C 
ATOM     19  C   UNL     1     -61.738 -57.430 -80.249  0.00  0.00    +0.000 C 
BRANCH  18  20
ATOM     20  C   UNL     1     -59.686 -56.862 -81.789  0.00  0.00    +0.000 A 
ATOM     21  C   UNL     1     -59.195 -57.821 -82.674  0.00  0.00    +0.000 A 
ATOM     22  C   UNL     1     -58.105 -57.531 -83.501  0.00  0.00    +0.000 A 
ATOM     23  C   UNL     1     -59.094 -55.603 -81.722  0.00  0.00    +0.000 A 
ATOM     24  C   UNL     1     -57.521 -56.265 -83.423  0.00  0.00    +0.000 A 
ATOM     25  C   UNL     1     -58.009 -55.303 -82.540  0.00  0.00    +0.000 A 
BRANCH  22  26
ATOM     26  O   UNL     1     -57.559 -58.416 -84.399  0.00  0.00    +0.000 OA
ATOM     27  C   UNL     1     -58.385 -58.773 -85.477  0.00  0.00    +0.000 C 
ENDBRANCH  22  26
BRANCH  24  28
ATOM     28  O   UNL     1     -56.454 -55.963 -84.224  0.00  0.00    +0.000 OA
ATOM     29  H   UNL     1     -56.636 -56.291 -85.125  0.00  0.00    +0.000 HD
ENDBRANCH  24  28
ENDBRANCH  18  20
ENDBRANCH   5  19
TORSDOF 8
ENDMDL
MODEL 7
REMARK VINA RESULT:      -5.4     10.512     11.035
REMARK  Name = 969516_Curcumin.pdbqt.pdb
REMARK  8 active torsions:
REMARK  status: ('A' for Active; 'I' for Inactive)
REMARK    1  A    between atoms: C_3  and  C_5
REMARK    2  A    between atoms: C_4  and  C_6
REMARK    3  A    between atoms: C_8  and  O_12
REMARK    4  A    between atoms: C_10  and  O_14
REMARK    5  A    between atoms: C_17  and  C_19
REMARK    6  A    between atoms: C_18  and  C_20
REMARK    7  A    between atoms: C_22  and  O_26
REMARK    8  A    between atoms: C_24  and  O_28
REMARK                            x       y       z     vdW  Elec       q    Type
REMARK                         _______ _______ _______ _____ _____    ______ ____
ROOT
ATOM      1  C   UNL     1     -60.268 -55.806 -25.268  0.00  0.00    +0.000 C 
ATOM      2  O   UNL     1     -60.912 -53.613 -25.446  0.00  0.00    +0.000 OA
ATOM      3  C   UNL     1     -60.786 -54.592 -24.727  0.00  0.00    +0.000 C 
ATOM      4  O   UNL     1     -59.339 -57.890 -25.062  0.00  0.00    +0.000 OA
ATOM      5  C   UNL     1     -59.747 -57.015 -25.811  0.00  0.00    +0.000 C 
ENDROOT
BRANCH   3   7
ATOM      6  C   UNL     1     -61.471 -54.480 -22.177  0.00  0.00    +0.000 C 
ATOM      7  C   UNL     1     -61.159 -54.531 -23.336  0.00  0.00    +0.000 C 
BRANCH   6   8
ATOM      8  C   UNL     1     -61.843 -54.420 -20.801  0.00  0.00    +0.000 A 
ATOM      9  C   UNL     1     -63.156 -54.109 -20.450  0.00  0.00    +0.000 A 
ATOM     10  C   UNL     1     -63.538 -54.046 -19.106  0.00  0.00    +0.000 A 
ATOM     11  C   UNL     1     -60.896 -54.671 -19.813  0.00  0.00    +0.000 A 
ATOM     12  C   UNL     1     -62.579 -54.301 -18.122  0.00  0.00    +0.000 A 
ATOM     13  C   UNL     1     -61.265 -54.612 -18.472  0.00  0.00    +0.000 A 
BRANCH  10  14
ATOM     14  O   UNL     1     -64.810 -53.748 -18.684  0.00  0.00    +0.000 OA
ATOM     15  C   UNL     1     -65.261 -52.451 -18.959  0.00  0.00    +0.000 C 
ENDBRANCH  10  14
BRANCH  12  16
ATOM     16  O   UNL     1     -62.858 -54.263 -16.783  0.00  0.00    +0.000 OA
ATOM     17  H   UNL     1     -63.107 -55.145 -16.460  0.00  0.00    +0.000 HD
ENDBRANCH  12  16
ENDBRANCH   6   8
ENDBRANCH   3   7
BRANCH   5  19
ATOM     18  C   UNL     1     -59.671 -57.353 -28.431  0.00  0.00    +0.000 C 
ATOM     19  C   UNL     1     -59.708 -57.200 -27.239  0.00  0.00    +0.000 C 
BRANCH  18  20
ATOM     20  C   UNL     1     -59.627 -57.529 -29.845  0.00  0.00    +0.000 A 
ATOM     21  C   UNL     1     -59.548 -58.812 -30.383  0.00  0.00    +0.000 A 
ATOM     22  C   UNL     1     -59.505 -59.000 -31.768  0.00  0.00    +0.000 A 
ATOM     23  C   UNL     1     -59.665 -56.418 -30.686  0.00  0.00    +0.000 A 
ATOM     24  C   UNL     1     -59.543 -57.878 -32.599  0.00  0.00    +0.000 A 
ATOM     25  C   UNL     1     -59.622 -56.593 -32.066  0.00  0.00    +0.000 A 
BRANCH  22  26
ATOM     26  O   UNL     1     -59.427 -60.228 -32.380  0.00  0.00    +0.000 OA
ATOM     27  C   UNL     1     -60.328 -61.197 -31.910  0.00  0.00    +0.000 C 
ENDBRANCH  22  26
BRANCH  24  28
ATOM     28  O   UNL     1     -59.502 -58.042 -33.957  0.00  0.00    +0.000 OA
ATOM     29  H   UNL     1     -59.088 -58.903 -34.155  0.00  0.00    +0.000 HD
ENDBRANCH  24  28
ENDBRANCH  18  20
ENDBRANCH   5  19
TORSDOF 8
ENDMDL
MODEL 8
REMARK VINA RESULT:      -5.4     10.841     11.363
REMARK  Name = 969516_Curcumin.pdbqt.pdb
REMARK  8 active torsions:
REMARK  status: ('A' for Active; 'I' for Inactive)
REMARK    1  A    between atoms: C_3  and  C_5
REMARK    2  A    between atoms: C_4  and  C_6
REMARK    3  A    between atoms: C_8  and  O_12
REMARK    4  A    between atoms: C_10  and  O_14
REMARK    5  A    between atoms: C_17  and  C_19
REMARK    6  A    between atoms: C_18  and  C_20
REMARK    7  A    between atoms: C_22  and  O_26
REMARK    8  A    between atoms: C_24  and  O_28
REMARK                            x       y       z     vdW  Elec       q    Type
REMARK                         _______ _______ _______ _____ _____    ______ ____
ROOT
ATOM      1  C   UNL     1     -60.739 -55.393 -23.927  0.00  0.00    +0.000 C 
ATOM      2  O   UNL     1     -61.591 -53.284 -24.208  0.00  0.00    +0.000 OA
ATOM      3  C   UNL     1     -61.442 -54.242 -23.465  0.00  0.00    +0.000 C 
ATOM      4  O   UNL     1     -59.619 -57.364 -23.586  0.00  0.00    +0.000 OA
ATOM      5  C   UNL     1     -60.032 -56.540 -24.389  0.00  0.00    +0.000 C 
ENDROOT
BRANCH   3   7
ATOM      6  C   UNL     1     -62.419 -54.200 -21.010  0.00  0.00    +0.000 C 
ATOM      7  C   UNL     1     -61.975 -54.219 -22.126  0.00  0.00    +0.000 C 
BRANCH   6   8
ATOM      8  C   UNL     1     -62.946 -54.180 -19.684  0.00  0.00    +0.000 A 
ATOM      9  C   UNL     1     -64.247 -53.732 -19.460  0.00  0.00    +0.000 A 
ATOM     10  C   UNL     1     -64.779 -53.705 -18.168  0.00  0.00    +0.000 A 
ATOM     11  C   UNL     1     -62.160 -54.605 -18.616  0.00  0.00    +0.000 A 
ATOM     12  C   UNL     1     -63.981 -54.136 -17.103  0.00  0.00    +0.000 A 
ATOM     13  C   UNL     1     -62.679 -54.584 -17.325  0.00  0.00    +0.000 A 
BRANCH  10  14
ATOM     14  O   UNL     1     -66.050 -53.280 -17.871  0.00  0.00    +0.000 OA
ATOM     15  C   UNL     1     -66.504 -52.158 -18.575  0.00  0.00    +0.000 C 
ENDBRANCH  10  14
BRANCH  12  16
ATOM     16  O   UNL     1     -64.414 -54.146 -15.806  0.00  0.00    +0.000 OA
ATOM     17  H   UNL     1     -63.809 -54.662 -15.247  0.00  0.00    +0.000 HD
ENDBRANCH  12  16
ENDBRANCH   6   8
ENDBRANCH   3   7
BRANCH   5  19
ATOM     18  C   UNL     1     -59.631 -56.876 -26.979  0.00  0.00    +0.000 C 
ATOM     19  C   UNL     1     -59.811 -56.724 -25.801  0.00  0.00    +0.000 C 
BRANCH  18  20
ATOM     20  C   UNL     1     -59.420 -57.061 -28.378  0.00  0.00    +0.000 A 
ATOM     21  C   UNL     1     -58.228 -56.638 -28.962  0.00  0.00    +0.000 A 
ATOM     22  C   UNL     1     -58.006 -56.813 -30.331  0.00  0.00    +0.000 A 
ATOM     23  C   UNL     1     -60.406 -57.664 -29.156  0.00  0.00    +0.000 A 
ATOM     24  C   UNL     1     -59.003 -57.419 -31.100  0.00  0.00    +0.000 A 
ATOM     25  C   UNL     1     -60.198 -57.843 -30.521  0.00  0.00    +0.000 A 
BRANCH  22  26
ATOM     26  O   UNL     1     -56.862 -56.425 -30.986  0.00  0.00    +0.000 OA
ATOM     27  C   UNL     1     -55.720 -57.196 -30.715  0.00  0.00    +0.000 C 
ENDBRANCH  22  26
BRANCH  24  28
ATOM     28  O   UNL     1     -58.805 -57.598 -32.442  0.00  0.00    +0.000 OA
ATOM     29  H   UNL     1     -57.874 -57.851 -32.589  0.00  0.00    +0.000 HD
ENDBRANCH  24  28
ENDBRANCH  18  20
ENDBRANCH   5  19
TORSDOF 8
ENDMDL
MODEL 9
REMARK VINA RESULT:      -5.4     10.847     16.256
REMARK  Name = 969516_Curcumin.pdbqt.pdb
REMARK  8 active torsions:
REMARK  status: ('A' for Active; 'I' for Inactive)
REMARK    1  A    between atoms: C_3  and  C_5
REMARK    2  A    between atoms: C_4  and  C_6
REMARK    3  A    between atoms: C_8  and  O_12
REMARK    4  A    between atoms: C_10  and  O_14
REMARK    5  A    between atoms: C_17  and  C_19
REMARK    6  A    between atoms: C_18  and  C_20
REMARK    7  A    between atoms: C_22  and  O_26
REMARK    8  A    between atoms: C_24  and  O_28
REMARK                            x       y       z     vdW  Elec       q    Type
REMARK                         _______ _______ _______ _____ _____    ______ ____
ROOT
ATOM      1  C   UNL     1     -60.723 -55.385 -23.949  0.00  0.00    +0.000 C 
ATOM      2  O   UNL     1     -59.594 -57.348 -23.593  0.00  0.00    +0.000 OA
ATOM      3  C   UNL     1     -60.011 -56.534 -24.404  0.00  0.00    +0.000 C 
ATOM      4  O   UNL     1     -61.586 -53.282 -24.241  0.00  0.00    +0.000 OA
ATOM      5  C   UNL     1     -61.430 -54.236 -23.493  0.00  0.00    +0.000 C 
ENDROOT
BRANCH   3   7
ATOM      6  C   UNL     1     -59.612 -56.891 -26.991  0.00  0.00    +0.000 C 
ATOM      7  C   UNL     1     -59.793 -56.729 -25.815  0.00  0.00    +0.000 C 
BRANCH   6   8
ATOM      8  C   UNL     1     -59.397 -57.081 -28.389  0.00  0.00    +0.000 A 
ATOM      9  C   UNL     1     -58.218 -56.628 -28.978  0.00  0.00    +0.000 A 
ATOM     10  C   UNL     1     -57.991 -56.806 -30.346  0.00  0.00    +0.000 A 
ATOM     11  C   UNL     1     -60.364 -57.719 -29.161  0.00  0.00    +0.000 A 
ATOM     12  C   UNL     1     -58.969 -57.448 -31.112  0.00  0.00    +0.000 A 
ATOM     13  C   UNL     1     -60.149 -57.902 -30.524  0.00  0.00    +0.000 A 
BRANCH  10  14
ATOM     14  O   UNL     1     -56.856 -56.388 -30.996  0.00  0.00    +0.000 OA
ATOM     15  C   UNL     1     -55.673 -57.056 -30.658  0.00  0.00    +0.000 C 
ENDBRANCH  10  14
BRANCH  12  16
ATOM     16  O   UNL     1     -58.837 -57.668 -32.456  0.00  0.00    +0.000 OA
ATOM     17  H   UNL     1     -58.942 -56.838 -32.951  0.00  0.00    +0.000 HD
ENDBRANCH  12  16
ENDBRANCH   6   8
ENDBRANCH   3   7
BRANCH   5  19
ATOM     18  C   UNL     1     -62.402 -54.182 -21.036  0.00  0.00    +0.000 C 
ATOM     19  C   UNL     1     -61.958 -54.206 -22.152  0.00  0.00    +0.000 C 
BRANCH  18  20
ATOM     20  C   UNL     1     -62.933 -54.150 -19.713  0.00  0.00    +0.000 A 
ATOM     21  C   UNL     1     -64.221 -53.664 -19.493  0.00  0.00    +0.000 A 
ATOM     22  C   UNL     1     -64.755 -53.628 -18.202  0.00  0.00    +0.000 A 
ATOM     23  C   UNL     1     -62.165 -54.606 -18.644  0.00  0.00    +0.000 A 
ATOM     24  C   UNL     1     -63.974 -54.088 -17.139  0.00  0.00    +0.000 A 
ATOM     25  C   UNL     1     -62.686 -54.574 -17.354  0.00  0.00    +0.000 A 
BRANCH  22  26
ATOM     26  O   UNL     1     -66.013 -53.165 -17.898  0.00  0.00    +0.000 OA
ATOM     27  C   UNL     1     -66.528 -52.193 -18.771  0.00  0.00    +0.000 C 
ENDBRANCH  22  26
BRANCH  24  28
ATOM     28  O   UNL     1     -64.480 -54.060 -15.868  0.00  0.00    +0.000 OA
ATOM     29  H   UNL     1     -65.315 -54.563 -15.853  0.00  0.00    +0.000 HD
ENDBRANCH  24  28
ENDBRANCH  18  20
ENDBRANCH   5  19
TORSDOF 8
ENDMDL
