MODEL 1
REMARK VINA RESULT:      -2.8      0.000      0.000
REMARK  Name = 971_OxalicAcid.pdbqt.pdb
REMARK  3 active torsions:
REMARK  status: ('A' for Active; 'I' for Inactive)
REMARK    1  A    between atoms: C_2  and  O_3
REMARK    2  A    between atoms: C_2  and  C_6
REMARK    3  A    between atoms: C_6  and  O_7
REMARK                            x       y       z     vdW  Elec       q    Type
REMARK                         _______ _______ _______ _____ _____    ______ ____
ROOT
ATOM      1  O   UNL     1     -62.469 -46.676 -57.367  0.00  0.00    +0.000 OA
ATOM      2  C   UNL     1     -61.709 -46.367 -58.263  0.00  0.00    +0.000 C 
ENDROOT
BRANCH   2   3
ATOM      3  O   UNL     1     -60.633 -45.598 -58.047  0.00  0.00    +0.000 OA
ATOM      4  H   UNL     1     -60.721 -44.867 -58.691  0.00  0.00    +0.000 HD
ENDBRANCH   2   3
BRANCH   2   6
ATOM      5  O   UNL     1     -62.904 -46.968 -60.342  0.00  0.00    +0.000 OA
ATOM      6  C   UNL     1     -61.853 -46.795 -59.757  0.00  0.00    +0.000 C 
BRANCH   6   7
ATOM      7  O   UNL     1     -60.669 -46.962 -60.363  0.00  0.00    +0.000 OA
ATOM      8  H   UNL     1     -60.848 -46.775 -61.306  0.00  0.00    +0.000 HD
ENDBRANCH   6   7
ENDBRANCH   2   6
TORSDOF 3
ENDMDL
MODEL 2
REMARK VINA RESULT:      -2.8     33.431     34.043
REMARK  Name = 971_OxalicAcid.pdbqt.pdb
REMARK  3 active torsions:
REMARK  status: ('A' for Active; 'I' for Inactive)
REMARK    1  A    between atoms: C_2  and  O_3
REMARK    2  A    between atoms: C_2  and  C_6
REMARK    3  A    between atoms: C_6  and  O_7
REMARK                            x       y       z     vdW  Elec       q    Type
REMARK                         _______ _______ _______ _____ _____    ______ ____
ROOT
ATOM      1  O   UNL     1     -54.584 -59.943 -90.232  0.00  0.00    +0.000 OA
ATOM      2  C   UNL     1     -54.026 -60.404 -89.255  0.00  0.00    +0.000 C 
ENDROOT
BRANCH   2   3
ATOM      3  O   UNL     1     -54.594 -61.350 -88.495  0.00  0.00    +0.000 OA
ATOM      4  H   UNL     1     -54.906 -62.022 -89.133  0.00  0.00    +0.000 HD
ENDBRANCH   2   3
BRANCH   2   6
ATOM      5  O   UNL     1     -51.851 -59.231 -89.314  0.00  0.00    +0.000 OA
ATOM      6  C   UNL     1     -52.612 -59.988 -88.744  0.00  0.00    +0.000 C 
BRANCH   6   7
ATOM      7  O   UNL     1     -52.296 -60.563 -87.574  0.00  0.00    +0.000 OA
ATOM      8  H   UNL     1     -52.816 -60.067 -86.910  0.00  0.00    +0.000 HD
ENDBRANCH   6   7
ENDBRANCH   2   6
TORSDOF 3
ENDMDL
MODEL 3
REMARK VINA RESULT:      -2.8      1.600      2.365
REMARK  Name = 971_OxalicAcid.pdbqt.pdb
REMARK  3 active torsions:
REMARK  status: ('A' for Active; 'I' for Inactive)
REMARK    1  A    between atoms: C_2  and  O_3
REMARK    2  A    between atoms: C_2  and  C_6
REMARK    3  A    between atoms: C_6  and  O_7
REMARK                            x       y       z     vdW  Elec       q    Type
REMARK                         _______ _______ _______ _____ _____    ______ ____
ROOT
ATOM      1  O   UNL     1     -63.374 -44.909 -59.382  0.00  0.00    +0.000 OA
ATOM      2  C   UNL     1     -62.374 -45.301 -59.952  0.00  0.00    +0.000 C 
ENDROOT
BRANCH   2   3
ATOM      3  O   UNL     1     -62.048 -44.878 -61.182  0.00  0.00    +0.000 OA
ATOM      4  H   UNL     1     -62.487 -44.008 -61.266  0.00  0.00    +0.000 HD
ENDBRANCH   2   3
BRANCH   2   6
ATOM      5  O   UNL     1     -61.093 -46.472 -58.194  0.00  0.00    +0.000 OA
ATOM      6  C   UNL     1     -61.344 -46.319 -59.373  0.00  0.00    +0.000 C 
BRANCH   6   7
ATOM      7  O   UNL     1     -60.736 -47.038 -60.327  0.00  0.00    +0.000 OA
ATOM      8  H   UNL     1     -61.413 -47.683 -60.616  0.00  0.00    +0.000 HD
ENDBRANCH   6   7
ENDBRANCH   2   6
TORSDOF 3
ENDMDL
MODEL 4
REMARK VINA RESULT:      -2.7      1.193      1.964
REMARK  Name = 971_OxalicAcid.pdbqt.pdb
REMARK  3 active torsions:
REMARK  status: ('A' for Active; 'I' for Inactive)
REMARK    1  A    between atoms: C_2  and  O_3
REMARK    2  A    between atoms: C_2  and  C_6
REMARK    3  A    between atoms: C_6  and  O_7
REMARK                            x       y       z     vdW  Elec       q    Type
REMARK                         _______ _______ _______ _____ _____    ______ ____
ROOT
ATOM      1  O   UNL     1     -61.280 -46.441 -58.059  0.00  0.00    +0.000 OA
ATOM      2  C   UNL     1     -61.623 -46.515 -59.222  0.00  0.00    +0.000 C 
ENDROOT
BRANCH   2   3
ATOM      3  O   UNL     1     -60.791 -46.943 -60.181  0.00  0.00    +0.000 OA
ATOM      4  H   UNL     1     -61.205 -47.764 -60.517  0.00  0.00    +0.000 HD
ENDBRANCH   2   3
BRANCH   2   6
ATOM      5  O   UNL     1     -63.803 -45.352 -59.260  0.00  0.00    +0.000 OA
ATOM      6  C   UNL     1     -63.034 -46.140 -59.773  0.00  0.00    +0.000 C 
BRANCH   6   7
ATOM      7  O   UNL     1     -63.335 -46.788 -60.907  0.00  0.00    +0.000 OA
ATOM      8  H   UNL     1     -62.576 -46.613 -61.499  0.00  0.00    +0.000 HD
ENDBRANCH   6   7
ENDBRANCH   2   6
TORSDOF 3
ENDMDL
MODEL 5
REMARK VINA RESULT:      -2.7     29.464     30.221
REMARK  Name = 971_OxalicAcid.pdbqt.pdb
REMARK  3 active torsions:
REMARK  status: ('A' for Active; 'I' for Inactive)
REMARK    1  A    between atoms: C_2  and  O_3
REMARK    2  A    between atoms: C_2  and  C_6
REMARK    3  A    between atoms: C_6  and  O_7
REMARK                            x       y       z     vdW  Elec       q    Type
REMARK                         _______ _______ _______ _____ _____    ______ ____
ROOT
ATOM      1  O   UNL     1     -58.278 -68.878 -81.070  0.00  0.00    +0.000 OA
ATOM      2  C   UNL     1     -58.404 -67.767 -80.595  0.00  0.00    +0.000 C 
ENDROOT
BRANCH   2   3
ATOM      3  O   UNL     1     -57.656 -67.347 -79.565  0.00  0.00    +0.000 OA
ATOM      4  H   UNL     1     -57.015 -66.726 -79.965  0.00  0.00    +0.000 HD
ENDBRANCH   2   3
BRANCH   2   6
ATOM      5  O   UNL     1     -60.378 -66.286 -80.456  0.00  0.00    +0.000 OA
ATOM      6  C   UNL     1     -59.416 -66.685 -81.083  0.00  0.00    +0.000 C 
BRANCH   6   7
ATOM      7  O   UNL     1     -59.121 -66.214 -82.303  0.00  0.00    +0.000 OA
ATOM      8  H   UNL     1     -59.900 -65.677 -82.553  0.00  0.00    +0.000 HD
ENDBRANCH   6   7
ENDBRANCH   2   6
TORSDOF 3
ENDMDL
MODEL 6
REMARK VINA RESULT:      -2.7      1.306      3.088
REMARK  Name = 971_OxalicAcid.pdbqt.pdb
REMARK  3 active torsions:
REMARK  status: ('A' for Active; 'I' for Inactive)
REMARK    1  A    between atoms: C_2  and  O_3
REMARK    2  A    between atoms: C_2  and  C_6
REMARK    3  A    between atoms: C_6  and  O_7
REMARK                            x       y       z     vdW  Elec       q    Type
REMARK                         _______ _______ _______ _____ _____    ______ ____
ROOT
ATOM      1  O   UNL     1     -61.199 -45.399 -61.330  0.00  0.00    +0.000 OA
ATOM      2  C   UNL     1     -61.455 -46.365 -60.638  0.00  0.00    +0.000 C 
ENDROOT
BRANCH   2   3
ATOM      3  O   UNL     1     -61.545 -47.600 -61.152  0.00  0.00    +0.000 OA
ATOM      4  H   UNL     1     -62.468 -47.872 -60.973  0.00  0.00    +0.000 HD
ENDBRANCH   2   3
BRANCH   2   6
ATOM      5  O   UNL     1     -60.852 -46.283 -58.243  0.00  0.00    +0.000 OA
ATOM      6  C   UNL     1     -61.713 -46.332 -59.100  0.00  0.00    +0.000 C 
BRANCH   6   7
ATOM      7  O   UNL     1     -63.017 -46.364 -58.794  0.00  0.00    +0.000 OA
ATOM      8  H   UNL     1     -63.443 -45.807 -59.476  0.00  0.00    +0.000 HD
ENDBRANCH   6   7
ENDBRANCH   2   6
TORSDOF 3
ENDMDL
MODEL 7
REMARK VINA RESULT:      -2.6     22.729     23.779
REMARK  Name = 971_OxalicAcid.pdbqt.pdb
REMARK  3 active torsions:
REMARK  status: ('A' for Active; 'I' for Inactive)
REMARK    1  A    between atoms: C_2  and  O_3
REMARK    2  A    between atoms: C_2  and  C_6
REMARK    3  A    between atoms: C_6  and  O_7
REMARK                            x       y       z     vdW  Elec       q    Type
REMARK                         _______ _______ _______ _____ _____    ______ ____
ROOT
ATOM      1  O   UNL     1     -56.713 -66.862 -73.030  0.00  0.00    +0.000 OA
ATOM      2  C   UNL     1     -57.089 -65.717 -72.872  0.00  0.00    +0.000 C 
ENDROOT
BRANCH   2   3
ATOM      3  O   UNL     1     -56.227 -64.710 -72.669  0.00  0.00    +0.000 OA
ATOM      4  H   UNL     1     -55.365 -65.061 -72.972  0.00  0.00    +0.000 HD
ENDBRANCH   2   3
BRANCH   2   6
ATOM      5  O   UNL     1     -59.480 -65.775 -73.491  0.00  0.00    +0.000 OA
ATOM      6  C   UNL     1     -58.575 -65.244 -72.878  0.00  0.00    +0.000 C 
BRANCH   6   7
ATOM      7  O   UNL     1     -58.775 -64.158 -72.118  0.00  0.00    +0.000 OA
ATOM      8  H   UNL     1     -58.183 -64.283 -71.350  0.00  0.00    +0.000 HD
ENDBRANCH   6   7
ENDBRANCH   2   6
TORSDOF 3
ENDMDL
MODEL 8
REMARK VINA RESULT:      -2.6     33.016     33.811
REMARK  Name = 971_OxalicAcid.pdbqt.pdb
REMARK  3 active torsions:
REMARK  status: ('A' for Active; 'I' for Inactive)
REMARK    1  A    between atoms: C_2  and  O_3
REMARK    2  A    between atoms: C_2  and  C_6
REMARK    3  A    between atoms: C_6  and  O_7
REMARK                            x       y       z     vdW  Elec       q    Type
REMARK                         _______ _______ _______ _____ _____    ______ ____
ROOT
ATOM      1  O   UNL     1     -52.745 -58.456 -88.224  0.00  0.00    +0.000 OA
ATOM      2  C   UNL     1     -52.824 -59.654 -88.416  0.00  0.00    +0.000 C 
ENDROOT
BRANCH   2   3
ATOM      3  O   UNL     1     -51.915 -60.510 -87.930  0.00  0.00    +0.000 OA
ATOM      4  H   UNL     1     -51.064 -60.033 -88.003  0.00  0.00    +0.000 HD
ENDBRANCH   2   3
BRANCH   2   6
ATOM      5  O   UNL     1     -54.886 -60.976 -88.746  0.00  0.00    +0.000 OA
ATOM      6  C   UNL     1     -53.950 -60.367 -89.226  0.00  0.00    +0.000 C 
BRANCH   6   7
ATOM      7  O   UNL     1     -53.789 -60.246 -90.552  0.00  0.00    +0.000 OA
ATOM      8  H   UNL     1     -52.823 -60.318 -90.689  0.00  0.00    +0.000 HD
ENDBRANCH   6   7
ENDBRANCH   2   6
TORSDOF 3
ENDMDL
MODEL 9
REMARK VINA RESULT:      -2.5     27.129     28.413
REMARK  Name = 971_OxalicAcid.pdbqt.pdb
REMARK  3 active torsions:
REMARK  status: ('A' for Active; 'I' for Inactive)
REMARK    1  A    between atoms: C_2  and  O_3
REMARK    2  A    between atoms: C_2  and  C_6
REMARK    3  A    between atoms: C_6  and  O_7
REMARK                            x       y       z     vdW  Elec       q    Type
REMARK                         _______ _______ _______ _____ _____    ______ ____
ROOT
ATOM      1  O   UNL     1     -67.258 -61.309 -34.031  0.00  0.00    +0.000 OA
ATOM      2  C   UNL     1     -67.546 -60.131 -33.958  0.00  0.00    +0.000 C 
ENDROOT
BRANCH   2   3
ATOM      3  O   UNL     1     -68.287 -59.643 -32.954  0.00  0.00    +0.000 OA
ATOM      4  H   UNL     1     -67.824 -59.935 -32.143  0.00  0.00    +0.000 HD
ENDBRANCH   2   3
BRANCH   2   6
ATOM      5  O   UNL     1     -67.026 -57.844 -34.738  0.00  0.00    +0.000 OA
ATOM      6  C   UNL     1     -67.119 -59.032 -34.979  0.00  0.00    +0.000 C 
BRANCH   6   7
ATOM      7  O   UNL     1     -66.853 -59.530 -36.195  0.00  0.00    +0.000 OA
ATOM      8  H   UNL     1     -66.055 -59.047 -36.488  0.00  0.00    +0.000 HD
ENDBRANCH   6   7
ENDBRANCH   2   6
TORSDOF 3
ENDMDL
