MODEL 1
REMARK VINA RESULT:      -6.0      0.000      0.000
REMARK  Name = 9852185_GambogicAcid.pdbqt.pdb
REMARK  10 active torsions:
REMARK  status: ('A' for Active; 'I' for Inactive)
REMARK    1  A    between atoms: C_8  and  C_30
REMARK    2  A    between atoms: C_20  and  C_38
REMARK    3  A    between atoms: C_21  and  O_28
REMARK    4  A    between atoms: C_25  and  C_43
REMARK    5  A    between atoms: C_31  and  C_32
REMARK    6  A    between atoms: C_32  and  C_35
REMARK    7  A    between atoms: C_35  and  O_36
REMARK    8  A    between atoms: C_39  and  C_40
REMARK    9  A    between atoms: C_43  and  C_44
REMARK   10  A    between atoms: C_45  and  C_46
REMARK                            x       y       z     vdW  Elec       q    Type
REMARK                         _______ _______ _______ _____ _____    ______ ____
ROOT
ATOM      1  O   UNL     1     -68.182 -61.685 -77.612  0.00  0.00    +0.000 OA
ATOM      2  O   UNL     1     -65.869 -60.123 -78.320  0.00  0.00    +0.000 OA
ATOM      3  O   UNL     1     -67.257 -64.431 -76.317  0.00  0.00    +0.000 OA
ATOM      4  O   UNL     1     -62.272 -62.036 -78.917  0.00  0.00    +0.000 OA
ATOM      5  O   UNL     1     -64.157 -56.000 -79.950  0.00  0.00    +0.000 OA
ATOM      6  C   UNL     1     -65.896 -61.543 -78.305  0.00  0.00    +0.000 C 
ATOM      7  C   UNL     1     -66.773 -62.146 -79.460  0.00  0.00    +0.000 C 
ATOM      8  C   UNL     1     -66.872 -62.090 -77.187  0.00  0.00    +0.000 C 
ATOM      9  C   UNL     1     -68.187 -61.721 -79.050  0.00  0.00    +0.000 C 
ATOM     10  C   UNL     1     -66.483 -63.580 -79.510  0.00  0.00    +0.000 C 
ATOM     11  C   UNL     1     -65.906 -64.218 -78.340  0.00  0.00    +0.000 C 
ATOM     12  C   UNL     1     -64.508 -62.198 -78.197  0.00  0.00    +0.000 C 
ATOM     13  C   UNL     1     -66.746 -63.691 -77.142  0.00  0.00    +0.000 C 
ATOM     14  C   UNL     1     -64.606 -63.622 -78.167  0.00  0.00    +0.000 C 
ATOM     15  C   UNL     1     -69.248 -62.735 -79.500  0.00  0.00    +0.000 C 
ATOM     16  C   UNL     1     -68.503 -60.325 -79.609  0.00  0.00    +0.000 C 
ATOM     17  C   UNL     1     -63.350 -61.486 -78.734  0.00  0.00    +0.000 C 
ATOM     18  C   UNL     1     -64.791 -59.470 -78.855  0.00  0.00    +0.000 A 
ATOM     19  C   UNL     1     -63.545 -60.072 -79.080  0.00  0.00    +0.000 A 
ATOM     20  C   UNL     1     -64.974 -58.100 -79.142  0.00  0.00    +0.000 A 
ATOM     21  C   UNL     1     -62.481 -59.328 -79.618  0.00  0.00    +0.000 A 
ATOM     22  C   UNL     1     -63.920 -57.349 -79.673  0.00  0.00    +0.000 A 
ATOM     23  C   UNL     1     -62.674 -57.981 -79.911  0.00  0.00    +0.000 A 
ATOM     24  C   UNL     1     -61.687 -57.115 -80.444  0.00  0.00    +0.000 C 
ATOM     25  C   UNL     1     -63.061 -55.132 -80.444  0.00  0.00    +0.000 C 
ATOM     26  C   UNL     1     -61.868 -55.955 -80.648  0.00  0.00    +0.000 C 
ATOM     27  C   UNL     1     -62.838 -54.040 -79.367  0.00  0.00    +0.000 C 
ENDROOT
BRANCH  21  28
ATOM     28  O   UNL     1     -61.249 -59.871 -79.868  0.00  0.00    +0.000 OA
ATOM     29  H   UNL     1     -61.342 -60.828 -80.075  0.00  0.00    +0.000 HD
ENDBRANCH  21  28
BRANCH   8  30
ATOM     30  C   UNL     1     -66.588 -61.514 -75.865  0.00  0.00    +0.000 C 
ATOM     31  C   UNL     1     -66.262 -60.956 -74.471  0.00  0.00    +0.000 C 
BRANCH  31  32
ATOM     32  C   UNL     1     -65.976 -60.536 -73.271  0.00  0.00    +0.000 C 
ATOM     33  C   UNL     1     -64.818 -61.254 -72.604  0.00  0.00    +0.000 C 
BRANCH  32  35
ATOM     34  O   UNL     1     -67.406 -58.590 -73.273  0.00  0.00    +0.000 OA
ATOM     35  C   UNL     1     -66.750 -59.421 -72.662  0.00  0.00    +0.000 C 
BRANCH  35  36
ATOM     36  O   UNL     1     -66.686 -59.372 -71.314  0.00  0.00    +0.000 OA
ATOM     37  H   UNL     1     -67.614 -59.261 -71.017  0.00  0.00    +0.000 HD
ENDBRANCH  35  36
ENDBRANCH  32  35
ENDBRANCH  31  32
ENDBRANCH   8  30
BRANCH  20  38
ATOM     38  C   UNL     1     -66.243 -57.480 -78.894  0.00  0.00    +0.000 C 
ATOM     39  C   UNL     1     -67.602 -56.803 -78.656  0.00  0.00    +0.000 C 
BRANCH  39  40
ATOM     40  C   UNL     1     -68.750 -56.229 -78.476  0.00  0.00    +0.000 C 
ATOM     41  C   UNL     1     -69.120 -55.046 -79.319  0.00  0.00    +0.000 C 
ATOM     42  C   UNL     1     -69.784 -56.888 -77.616  0.00  0.00    +0.000 C 
ENDBRANCH  39  40
ENDBRANCH  20  38
BRANCH  25  43
ATOM     43  C   UNL     1     -63.527 -54.527 -81.706  0.00  0.00    +0.000 C 
BRANCH  43  44
ATOM     44  C   UNL     1     -64.009 -53.891 -83.016  0.00  0.00    +0.000 C 
ATOM     45  C   UNL     1     -64.490 -53.252 -84.326  0.00  0.00    +0.000 C 
BRANCH  45  46
ATOM     46  C   UNL     1     -64.904 -52.712 -85.430  0.00  0.00    +0.000 C 
ATOM     47  C   UNL     1     -66.013 -53.360 -86.200  0.00  0.00    +0.000 C 
ATOM     48  C   UNL     1     -64.163 -51.553 -86.020  0.00  0.00    +0.000 C 
ENDBRANCH  45  46
ENDBRANCH  43  44
ENDBRANCH  25  43
TORSDOF 10
ENDMDL
MODEL 2
REMARK VINA RESULT:      -5.8      2.364      9.714
REMARK  Name = 9852185_GambogicAcid.pdbqt.pdb
REMARK  10 active torsions:
REMARK  status: ('A' for Active; 'I' for Inactive)
REMARK    1  A    between atoms: C_8  and  C_30
REMARK    2  A    between atoms: C_20  and  C_38
REMARK    3  A    between atoms: C_21  and  O_28
REMARK    4  A    between atoms: C_25  and  C_43
REMARK    5  A    between atoms: C_31  and  C_32
REMARK    6  A    between atoms: C_32  and  C_35
REMARK    7  A    between atoms: C_35  and  O_36
REMARK    8  A    between atoms: C_39  and  C_40
REMARK    9  A    between atoms: C_43  and  C_44
REMARK   10  A    between atoms: C_45  and  C_46
REMARK                            x       y       z     vdW  Elec       q    Type
REMARK                         _______ _______ _______ _____ _____    ______ ____
ROOT
ATOM      1  O   UNL     1     -64.047 -52.952 -81.416  0.00  0.00    +0.000 OA
ATOM      2  O   UNL     1     -63.565 -55.717 -80.769  0.00  0.00    +0.000 OA
ATOM      3  O   UNL     1     -62.021 -52.018 -83.674  0.00  0.00    +0.000 OA
ATOM      4  O   UNL     1     -59.875 -57.347 -81.592  0.00  0.00    +0.000 OA
ATOM      5  O   UNL     1     -64.929 -59.567 -78.339  0.00  0.00    +0.000 OA
ATOM      6  C   UNL     1     -62.562 -54.819 -81.223  0.00  0.00    +0.000 C 
ATOM      7  C   UNL     1     -62.197 -53.727 -80.154  0.00  0.00    +0.000 C 
ATOM      8  C   UNL     1     -63.157 -53.744 -82.218  0.00  0.00    +0.000 C 
ATOM      9  C   UNL     1     -63.479 -52.889 -80.096  0.00  0.00    +0.000 C 
ATOM     10  C   UNL     1     -60.976 -53.068 -80.620  0.00  0.00    +0.000 C 
ATOM     11  C   UNL     1     -60.625 -53.159 -82.026  0.00  0.00    +0.000 C 
ATOM     12  C   UNL     1     -61.327 -55.509 -81.826  0.00  0.00    +0.000 C 
ATOM     13  C   UNL     1     -61.946 -52.855 -82.788  0.00  0.00    +0.000 C 
ATOM     14  C   UNL     1     -60.367 -54.552 -82.280  0.00  0.00    +0.000 C 
ATOM     15  C   UNL     1     -63.191 -51.417 -79.769  0.00  0.00    +0.000 C 
ATOM     16  C   UNL     1     -64.457 -53.488 -79.074  0.00  0.00    +0.000 C 
ATOM     17  C   UNL     1     -60.965 -56.845 -81.356  0.00  0.00    +0.000 C 
ATOM     18  C   UNL     1     -63.209 -56.954 -80.303  0.00  0.00    +0.000 A 
ATOM     19  C   UNL     1     -61.967 -57.556 -80.551  0.00  0.00    +0.000 A 
ATOM     20  C   UNL     1     -64.194 -57.648 -79.568  0.00  0.00    +0.000 A 
ATOM     21  C   UNL     1     -61.683 -58.837 -80.050  0.00  0.00    +0.000 A 
ATOM     22  C   UNL     1     -63.924 -58.927 -79.068  0.00  0.00    +0.000 A 
ATOM     23  C   UNL     1     -62.655 -59.509 -79.315  0.00  0.00    +0.000 A 
ATOM     24  C   UNL     1     -62.506 -60.806 -78.763  0.00  0.00    +0.000 C 
ATOM     25  C   UNL     1     -64.733 -60.951 -77.846  0.00  0.00    +0.000 C 
ATOM     26  C   UNL     1     -63.371 -61.375 -78.172  0.00  0.00    +0.000 C 
ATOM     27  C   UNL     1     -65.800 -61.829 -78.549  0.00  0.00    +0.000 C 
ENDROOT
BRANCH  21  28
ATOM     28  O   UNL     1     -60.483 -59.463 -80.254  0.00  0.00    +0.000 OA
ATOM     29  H   UNL     1     -60.627 -60.427 -80.389  0.00  0.00    +0.000 HD
ENDBRANCH  21  28
BRANCH   8  30
ATOM     30  C   UNL     1     -63.909 -54.357 -83.322  0.00  0.00    +0.000 C 
ATOM     31  C   UNL     1     -64.693 -55.046 -84.450  0.00  0.00    +0.000 C 
BRANCH  31  32
ATOM     32  C   UNL     1     -65.331 -55.679 -85.392  0.00  0.00    +0.000 C 
ATOM     33  C   UNL     1     -66.498 -54.918 -85.994  0.00  0.00    +0.000 C 
BRANCH  32  35
ATOM     34  O   UNL     1     -65.486 -57.767 -86.596  0.00  0.00    +0.000 OA
ATOM     35  C   UNL     1     -64.892 -57.036 -85.817  0.00  0.00    +0.000 C 
BRANCH  35  36
ATOM     36  O   UNL     1     -63.731 -57.443 -85.261  0.00  0.00    +0.000 OA
ATOM     37  H   UNL     1     -63.196 -57.785 -86.008  0.00  0.00    +0.000 HD
ENDBRANCH  35  36
ENDBRANCH  32  35
ENDBRANCH  31  32
ENDBRANCH   8  30
BRANCH  20  38
ATOM     38  C   UNL     1     -65.472 -57.040 -79.330  0.00  0.00    +0.000 C 
ATOM     39  C   UNL     1     -66.844 -56.389 -79.107  0.00  0.00    +0.000 C 
BRANCH  39  40
ATOM     40  C   UNL     1     -68.009 -55.843 -78.939  0.00  0.00    +0.000 C 
ATOM     41  C   UNL     1     -68.313 -54.539 -79.612  0.00  0.00    +0.000 C 
ATOM     42  C   UNL     1     -69.108 -56.625 -78.287  0.00  0.00    +0.000 C 
ENDBRANCH  39  40
ENDBRANCH  20  38
BRANCH  25  43
ATOM     43  C   UNL     1     -64.961 -60.925 -76.389  0.00  0.00    +0.000 C 
BRANCH  43  44
ATOM     44  C   UNL     1     -65.194 -60.905 -74.873  0.00  0.00    +0.000 C 
ATOM     45  C   UNL     1     -65.425 -60.884 -73.355  0.00  0.00    +0.000 C 
BRANCH  45  46
ATOM     46  C   UNL     1     -65.615 -60.872 -72.073  0.00  0.00    +0.000 C 
ATOM     47  C   UNL     1     -64.602 -61.504 -71.169  0.00  0.00    +0.000 C 
ATOM     48  C   UNL     1     -66.918 -60.393 -71.513  0.00  0.00    +0.000 C 
ENDBRANCH  45  46
ENDBRANCH  43  44
ENDBRANCH  25  43
TORSDOF 10
ENDMDL
MODEL 3
REMARK VINA RESULT:      -5.6     46.108     51.376
REMARK  Name = 9852185_GambogicAcid.pdbqt.pdb
REMARK  10 active torsions:
REMARK  status: ('A' for Active; 'I' for Inactive)
REMARK    1  A    between atoms: C_8  and  C_30
REMARK    2  A    between atoms: C_20  and  C_38
REMARK    3  A    between atoms: C_21  and  O_28
REMARK    4  A    between atoms: C_25  and  C_43
REMARK    5  A    between atoms: C_31  and  C_32
REMARK    6  A    between atoms: C_32  and  C_35
REMARK    7  A    between atoms: C_35  and  O_36
REMARK    8  A    between atoms: C_39  and  C_40
REMARK    9  A    between atoms: C_43  and  C_44
REMARK   10  A    between atoms: C_45  and  C_46
REMARK                            x       y       z     vdW  Elec       q    Type
REMARK                         _______ _______ _______ _____ _____    ______ ____
ROOT
ATOM      1  O   UNL     1     -72.032 -55.557 -30.678  0.00  0.00    +0.000 OA
ATOM      2  O   UNL     1     -72.441 -58.277 -29.823  0.00  0.00    +0.000 OA
ATOM      3  O   UNL     1     -71.818 -55.457 -33.843  0.00  0.00    +0.000 OA
ATOM      4  O   UNL     1     -71.286 -61.349 -32.309  0.00  0.00    +0.000 OA
ATOM      5  O   UNL     1     -73.319 -61.266 -26.233  0.00  0.00    +0.000 OA
ATOM      6  C   UNL     1     -71.725 -57.909 -30.993  0.00  0.00    +0.000 C 
ATOM      7  C   UNL     1     -70.348 -57.224 -30.672  0.00  0.00    +0.000 C 
ATOM      8  C   UNL     1     -72.309 -56.589 -31.638  0.00  0.00    +0.000 C 
ATOM      9  C   UNL     1     -70.786 -55.896 -30.045  0.00  0.00    +0.000 C 
ATOM     10  C   UNL     1     -69.599 -57.168 -31.928  0.00  0.00    +0.000 C 
ATOM     11  C   UNL     1     -70.325 -57.273 -33.182  0.00  0.00    +0.000 C 
ATOM     12  C   UNL     1     -71.610 -59.032 -32.039  0.00  0.00    +0.000 C 
ATOM     13  C   UNL     1     -71.540 -56.315 -33.021  0.00  0.00    +0.000 C 
ATOM     14  C   UNL     1     -70.898 -58.594 -33.196  0.00  0.00    +0.000 C 
ATOM     15  C   UNL     1     -69.783 -54.767 -30.327  0.00  0.00    +0.000 C 
ATOM     16  C   UNL     1     -70.994 -56.068 -28.533  0.00  0.00    +0.000 C 
ATOM     17  C   UNL     1     -71.623 -60.422 -31.585  0.00  0.00    +0.000 C 
ATOM     18  C   UNL     1     -72.419 -59.576 -29.392  0.00  0.00    +0.000 A 
ATOM     19  C   UNL     1     -72.034 -60.659 -30.195  0.00  0.00    +0.000 A 
ATOM     20  C   UNL     1     -72.858 -59.800 -28.069  0.00  0.00    +0.000 A 
ATOM     21  C   UNL     1     -72.054 -61.968 -29.684  0.00  0.00    +0.000 A 
ATOM     22  C   UNL     1     -72.886 -61.099 -27.552  0.00  0.00    +0.000 A 
ATOM     23  C   UNL     1     -72.475 -62.179 -28.374  0.00  0.00    +0.000 A 
ATOM     24  C   UNL     1     -72.555 -63.443 -27.738  0.00  0.00    +0.000 C 
ATOM     25  C   UNL     1     -73.443 -62.623 -25.650  0.00  0.00    +0.000 C 
ATOM     26  C   UNL     1     -72.958 -63.598 -26.627  0.00  0.00    +0.000 C 
ATOM     27  C   UNL     1     -74.942 -62.829 -25.317  0.00  0.00    +0.000 C 
ENDROOT
BRANCH  21  28
ATOM     28  O   UNL     1     -71.676 -63.058 -30.421  0.00  0.00    +0.000 OA
ATOM     29  H   UNL     1     -72.229 -63.834 -30.177  0.00  0.00    +0.000 HD
ENDBRANCH  21  28
BRANCH   8  30
ATOM     30  C   UNL     1     -73.759 -56.669 -31.862  0.00  0.00    +0.000 C 
ATOM     31  C   UNL     1     -75.283 -56.744 -32.044  0.00  0.00    +0.000 C 
BRANCH  31  32
ATOM     32  C   UNL     1     -76.580 -56.824 -32.144  0.00  0.00    +0.000 C 
ATOM     33  C   UNL     1     -77.191 -55.948 -33.221  0.00  0.00    +0.000 C 
BRANCH  32  35
ATOM     34  O   UNL     1     -78.236 -57.400 -30.483  0.00  0.00    +0.000 OA
ATOM     35  C   UNL     1     -77.347 -57.736 -31.252  0.00  0.00    +0.000 C 
BRANCH  35  36
ATOM     36  O   UNL     1     -76.989 -59.034 -31.345  0.00  0.00    +0.000 OA
ATOM     37  H   UNL     1     -76.852 -59.329 -30.420  0.00  0.00    +0.000 HD
ENDBRANCH  35  36
ENDBRANCH  32  35
ENDBRANCH  31  32
ENDBRANCH   8  30
BRANCH  20  38
ATOM     38  C   UNL     1     -73.270 -58.694 -27.255  0.00  0.00    +0.000 C 
ATOM     39  C   UNL     1     -73.704 -57.526 -26.357  0.00  0.00    +0.000 C 
BRANCH  39  40
ATOM     40  C   UNL     1     -74.061 -56.549 -25.583  0.00  0.00    +0.000 C 
ATOM     41  C   UNL     1     -73.639 -56.559 -24.144  0.00  0.00    +0.000 C 
ATOM     42  C   UNL     1     -74.671 -55.315 -26.176  0.00  0.00    +0.000 C 
ENDBRANCH  39  40
ENDBRANCH  20  38
BRANCH  25  43
ATOM     43  C   UNL     1     -72.632 -62.637 -24.418  0.00  0.00    +0.000 C 
BRANCH  43  44
ATOM     44  C   UNL     1     -71.795 -62.654 -23.133  0.00  0.00    +0.000 C 
ATOM     45  C   UNL     1     -70.957 -62.669 -21.846  0.00  0.00    +0.000 C 
BRANCH  45  46
ATOM     46  C   UNL     1     -70.243 -62.682 -20.765  0.00  0.00    +0.000 C 
ATOM     47  C   UNL     1     -68.825 -63.164 -20.820  0.00  0.00    +0.000 C 
ATOM     48  C   UNL     1     -70.880 -62.391 -19.442  0.00  0.00    +0.000 C 
ENDBRANCH  45  46
ENDBRANCH  43  44
ENDBRANCH  25  43
TORSDOF 10
ENDMDL
MODEL 4
REMARK VINA RESULT:      -5.5     48.571     54.013
REMARK  Name = 9852185_GambogicAcid.pdbqt.pdb
REMARK  10 active torsions:
REMARK  status: ('A' for Active; 'I' for Inactive)
REMARK    1  A    between atoms: C_8  and  C_30
REMARK    2  A    between atoms: C_20  and  C_38
REMARK    3  A    between atoms: C_21  and  O_28
REMARK    4  A    between atoms: C_25  and  C_43
REMARK    5  A    between atoms: C_31  and  C_32
REMARK    6  A    between atoms: C_32  and  C_35
REMARK    7  A    between atoms: C_35  and  O_36
REMARK    8  A    between atoms: C_39  and  C_40
REMARK    9  A    between atoms: C_43  and  C_44
REMARK   10  A    between atoms: C_45  and  C_46
REMARK                            x       y       z     vdW  Elec       q    Type
REMARK                         _______ _______ _______ _____ _____    ______ ____
ROOT
ATOM      1  O   UNL     1     -73.794 -55.264 -30.137  0.00  0.00    +0.000 OA
ATOM      2  O   UNL     1     -73.820 -56.101 -27.382  0.00  0.00    +0.000 OA
ATOM      3  O   UNL     1     -73.207 -57.764 -32.003  0.00  0.00    +0.000 OA
ATOM      4  O   UNL     1     -71.837 -59.550 -26.322  0.00  0.00    +0.000 OA
ATOM      5  O   UNL     1     -74.598 -54.934 -22.841  0.00  0.00    +0.000 OA
ATOM      6  C   UNL     1     -73.039 -56.720 -28.395  0.00  0.00    +0.000 C 
ATOM      7  C   UNL     1     -71.857 -55.811 -28.889  0.00  0.00    +0.000 C 
ATOM      8  C   UNL     1     -73.762 -56.660 -29.799  0.00  0.00    +0.000 C 
ATOM      9  C   UNL     1     -72.597 -54.675 -29.602  0.00  0.00    +0.000 C 
ATOM     10  C   UNL     1     -70.977 -56.659 -29.695  0.00  0.00    +0.000 C 
ATOM     11  C   UNL     1     -71.510 -57.891 -30.251  0.00  0.00    +0.000 C 
ATOM     12  C   UNL     1     -72.597 -58.155 -28.060  0.00  0.00    +0.000 C 
ATOM     13  C   UNL     1     -72.886 -57.492 -30.857  0.00  0.00    +0.000 C 
ATOM     14  C   UNL     1     -71.834 -58.725 -29.124  0.00  0.00    +0.000 C 
ATOM     15  C   UNL     1     -71.783 -54.099 -30.770  0.00  0.00    +0.000 C 
ATOM     16  C   UNL     1     -72.960 -53.568 -28.599  0.00  0.00    +0.000 C 
ATOM     17  C   UNL     1     -72.421 -58.529 -26.658  0.00  0.00    +0.000 C 
ATOM     18  C   UNL     1     -73.622 -56.439 -26.070  0.00  0.00    +0.000 A 
ATOM     19  C   UNL     1     -72.954 -57.599 -25.653  0.00  0.00    +0.000 A 
ATOM     20  C   UNL     1     -74.177 -55.562 -25.112  0.00  0.00    +0.000 A 
ATOM     21  C   UNL     1     -72.806 -57.884 -24.286  0.00  0.00    +0.000 A 
ATOM     22  C   UNL     1     -74.040 -55.839 -23.748  0.00  0.00    +0.000 A 
ATOM     23  C   UNL     1     -73.344 -57.007 -23.347  0.00  0.00    +0.000 A 
ATOM     24  C   UNL     1     -73.278 -57.179 -21.942  0.00  0.00    +0.000 C 
ATOM     25  C   UNL     1     -74.553 -55.207 -21.384  0.00  0.00    +0.000 C 
ATOM     26  C   UNL     1     -73.783 -56.432 -21.162  0.00  0.00    +0.000 C 
ATOM     27  C   UNL     1     -76.021 -55.348 -20.911  0.00  0.00    +0.000 C 
ENDROOT
BRANCH  21  28
ATOM     28  O   UNL     1     -72.152 -58.996 -23.826  0.00  0.00    +0.000 OA
ATOM     29  H   UNL     1     -71.648 -59.413 -24.561  0.00  0.00    +0.000 HD
ENDBRANCH  21  28
BRANCH   8  30
ATOM     30  C   UNL     1     -75.136 -57.181 -29.746  0.00  0.00    +0.000 C 
ATOM     31  C   UNL     1     -76.562 -57.752 -29.736  0.00  0.00    +0.000 C 
BRANCH  31  32
ATOM     32  C   UNL     1     -77.768 -58.242 -29.784  0.00  0.00    +0.000 C 
ATOM     33  C   UNL     1     -78.047 -59.133 -30.980  0.00  0.00    +0.000 C 
BRANCH  32  35
ATOM     34  O   UNL     1     -79.739 -58.591 -28.434  0.00  0.00    +0.000 OA
ATOM     35  C   UNL     1     -78.749 -57.929 -28.710  0.00  0.00    +0.000 C 
BRANCH  35  36
ATOM     36  O   UNL     1     -78.470 -56.808 -28.012  0.00  0.00    +0.000 OA
ATOM     37  H   UNL     1     -79.249 -56.227 -28.139  0.00  0.00    +0.000 HD
ENDBRANCH  35  36
ENDBRANCH  32  35
ENDBRANCH  31  32
ENDBRANCH   8  30
BRANCH  20  38
ATOM     38  C   UNL     1     -74.878 -54.386 -25.539  0.00  0.00    +0.000 C 
ATOM     39  C   UNL     1     -75.613 -53.128 -26.024  0.00  0.00    +0.000 C 
BRANCH  39  40
ATOM     40  C   UNL     1     -76.228 -52.070 -26.453  0.00  0.00    +0.000 C 
ATOM     41  C   UNL     1     -75.447 -50.998 -27.152  0.00  0.00    +0.000 C 
ATOM     42  C   UNL     1     -77.726 -52.036 -26.470  0.00  0.00    +0.000 C 
ENDBRANCH  39  40
ENDBRANCH  20  38
BRANCH  25  43
ATOM     43  C   UNL     1     -73.913 -54.040 -20.748  0.00  0.00    +0.000 C 
BRANCH  43  44
ATOM     44  C   UNL     1     -73.244 -52.832 -20.081  0.00  0.00    +0.000 C 
ATOM     45  C   UNL     1     -72.576 -51.620 -19.414  0.00  0.00    +0.000 C 
BRANCH  45  46
ATOM     46  C   UNL     1     -72.010 -50.596 -18.858  0.00  0.00    +0.000 C 
ATOM     47  C   UNL     1     -70.590 -50.260 -19.198  0.00  0.00    +0.000 C 
ATOM     48  C   UNL     1     -72.706 -49.862 -17.755  0.00  0.00    +0.000 C 
ENDBRANCH  45  46
ENDBRANCH  43  44
ENDBRANCH  25  43
TORSDOF 10
ENDMDL
MODEL 5
REMARK VINA RESULT:      -5.5     42.401     48.151
REMARK  Name = 9852185_GambogicAcid.pdbqt.pdb
REMARK  10 active torsions:
REMARK  status: ('A' for Active; 'I' for Inactive)
REMARK    1  A    between atoms: C_8  and  C_30
REMARK    2  A    between atoms: C_20  and  C_38
REMARK    3  A    between atoms: C_21  and  O_28
REMARK    4  A    between atoms: C_25  and  C_43
REMARK    5  A    between atoms: C_31  and  C_32
REMARK    6  A    between atoms: C_32  and  C_35
REMARK    7  A    between atoms: C_35  and  O_36
REMARK    8  A    between atoms: C_39  and  C_40
REMARK    9  A    between atoms: C_43  and  C_44
REMARK   10  A    between atoms: C_45  and  C_46
REMARK                            x       y       z     vdW  Elec       q    Type
REMARK                         _______ _______ _______ _____ _____    ______ ____
ROOT
ATOM      1  O   UNL     1     -63.353 -44.606 -36.584  0.00  0.00    +0.000 OA
ATOM      2  O   UNL     1     -64.817 -45.973 -34.514  0.00  0.00    +0.000 OA
ATOM      3  O   UNL     1     -65.075 -44.555 -39.250  0.00  0.00    +0.000 OA
ATOM      4  O   UNL     1     -67.780 -48.626 -35.582  0.00  0.00    +0.000 OA
ATOM      5  O   UNL     1     -65.045 -47.270 -29.948  0.00  0.00    +0.000 OA
ATOM      6  C   UNL     1     -64.942 -46.259 -35.901  0.00  0.00    +0.000 C 
ATOM      7  C   UNL     1     -63.664 -46.953 -36.494  0.00  0.00    +0.000 C 
ATOM      8  C   UNL     1     -64.730 -44.963 -36.780  0.00  0.00    +0.000 C 
ATOM      9  C   UNL     1     -62.621 -45.833 -36.417  0.00  0.00    +0.000 C 
ATOM     10  C   UNL     1     -64.028 -47.450 -37.822  0.00  0.00    +0.000 C 
ATOM     11  C   UNL     1     -65.181 -46.874 -38.493  0.00  0.00    +0.000 C 
ATOM     12  C   UNL     1     -66.249 -46.978 -36.279  0.00  0.00    +0.000 C 
ATOM     13  C   UNL     1     -65.019 -45.338 -38.315  0.00  0.00    +0.000 C 
ATOM     14  C   UNL     1     -66.321 -47.219 -37.685  0.00  0.00    +0.000 C 
ATOM     15  C   UNL     1     -61.585 -45.930 -37.545  0.00  0.00    +0.000 C 
ATOM     16  C   UNL     1     -61.929 -45.849 -35.045  0.00  0.00    +0.000 C 
ATOM     17  C   UNL     1     -66.896 -47.833 -35.285  0.00  0.00    +0.000 C 
ATOM     18  C   UNL     1     -65.403 -46.800 -33.594  0.00  0.00    +0.000 A 
ATOM     19  C   UNL     1     -66.414 -47.721 -33.902  0.00  0.00    +0.000 A 
ATOM     20  C   UNL     1     -64.964 -46.654 -32.260  0.00  0.00    +0.000 A 
ATOM     21  C   UNL     1     -66.977 -48.524 -32.896  0.00  0.00    +0.000 A 
ATOM     22  C   UNL     1     -65.522 -47.446 -31.250  0.00  0.00    +0.000 A 
ATOM     23  C   UNL     1     -66.529 -48.385 -31.586  0.00  0.00    +0.000 A 
ATOM     24  C   UNL     1     -67.017 -49.120 -30.477  0.00  0.00    +0.000 C 
ATOM     25  C   UNL     1     -65.646 -48.023 -28.821  0.00  0.00    +0.000 C 
ATOM     26  C   UNL     1     -66.643 -48.950 -29.358  0.00  0.00    +0.000 C 
ATOM     27  C   UNL     1     -66.276 -46.975 -27.870  0.00  0.00    +0.000 C 
ENDROOT
BRANCH  21  28
ATOM     28  O   UNL     1     -67.957 -49.447 -33.147  0.00  0.00    +0.000 OA
ATOM     29  H   UNL     1     -68.267 -49.843 -32.301  0.00  0.00    +0.000 HD
ENDBRANCH  21  28
BRANCH   8  30
ATOM     30  C   UNL     1     -65.588 -43.849 -36.352  0.00  0.00    +0.000 C 
ATOM     31  C   UNL     1     -66.497 -42.712 -35.860  0.00  0.00    +0.000 C 
BRANCH  31  32
ATOM     32  C   UNL     1     -67.298 -41.787 -35.412  0.00  0.00    +0.000 C 
ATOM     33  C   UNL     1     -67.607 -40.678 -36.401  0.00  0.00    +0.000 C 
BRANCH  32  35
ATOM     34  O   UNL     1     -68.368 -40.957 -33.413  0.00  0.00    +0.000 OA
ATOM     35  C   UNL     1     -67.849 -41.873 -34.033  0.00  0.00    +0.000 C 
BRANCH  35  36
ATOM     36  O   UNL     1     -67.741 -43.094 -33.467  0.00  0.00    +0.000 OA
ATOM     37  H   UNL     1     -67.894 -43.730 -34.198  0.00  0.00    +0.000 HD
ENDBRANCH  35  36
ENDBRANCH  32  35
ENDBRANCH  31  32
ENDBRANCH   8  30
BRANCH  20  38
ATOM     38  C   UNL     1     -63.944 -45.698 -31.942  0.00  0.00    +0.000 C 
ATOM     39  C   UNL     1     -62.850 -44.665 -31.632  0.00  0.00    +0.000 C 
BRANCH  39  40
ATOM     40  C   UNL     1     -61.930 -43.785 -31.389  0.00  0.00    +0.000 C 
ATOM     41  C   UNL     1     -61.266 -43.080 -32.533  0.00  0.00    +0.000 C 
ATOM     42  C   UNL     1     -61.713 -43.304 -29.987  0.00  0.00    +0.000 C 
ENDBRANCH  39  40
ENDBRANCH  20  38
BRANCH  25  43
ATOM     43  C   UNL     1     -64.545 -48.739 -28.148  0.00  0.00    +0.000 C 
BRANCH  43  44
ATOM     44  C   UNL     1     -63.403 -49.489 -27.451  0.00  0.00    +0.000 C 
ATOM     45  C   UNL     1     -62.261 -50.242 -26.754  0.00  0.00    +0.000 C 
BRANCH  45  46
ATOM     46  C   UNL     1     -61.301 -50.878 -26.159  0.00  0.00    +0.000 C 
ATOM     47  C   UNL     1     -59.888 -50.679 -26.616  0.00  0.00    +0.000 C 
ATOM     48  C   UNL     1     -61.616 -51.935 -25.147  0.00  0.00    +0.000 C 
ENDBRANCH  45  46
ENDBRANCH  43  44
ENDBRANCH  25  43
TORSDOF 10
ENDMDL
MODEL 6
REMARK VINA RESULT:      -5.5     30.849     37.259
REMARK  Name = 9852185_GambogicAcid.pdbqt.pdb
REMARK  10 active torsions:
REMARK  status: ('A' for Active; 'I' for Inactive)
REMARK    1  A    between atoms: C_8  and  C_30
REMARK    2  A    between atoms: C_20  and  C_38
REMARK    3  A    between atoms: C_21  and  O_28
REMARK    4  A    between atoms: C_25  and  C_43
REMARK    5  A    between atoms: C_31  and  C_32
REMARK    6  A    between atoms: C_32  and  C_35
REMARK    7  A    between atoms: C_35  and  O_36
REMARK    8  A    between atoms: C_39  and  C_40
REMARK    9  A    between atoms: C_43  and  C_44
REMARK   10  A    between atoms: C_45  and  C_46
REMARK                            x       y       z     vdW  Elec       q    Type
REMARK                         _______ _______ _______ _____ _____    ______ ____
ROOT
ATOM      1  O   UNL     1     -57.161 -61.286 -40.046  0.00  0.00    +0.000 OA
ATOM      2  O   UNL     1     -59.424 -60.037 -41.316  0.00  0.00    +0.000 OA
ATOM      3  O   UNL     1     -57.334 -60.859 -36.905  0.00  0.00    +0.000 OA
ATOM      4  O   UNL     1     -61.397 -57.005 -39.350  0.00  0.00    +0.000 OA
ATOM      5  O   UNL     1     -61.855 -59.267 -45.327  0.00  0.00    +0.000 OA
ATOM      6  C   UNL     1     -58.837 -59.579 -40.106  0.00  0.00    +0.000 C 
ATOM      7  C   UNL     1     -57.416 -58.946 -40.322  0.00  0.00    +0.000 C 
ATOM      8  C   UNL     1     -58.250 -60.778 -39.259  0.00  0.00    +0.000 C 
ATOM      9  C   UNL     1     -56.578 -60.163 -40.730  0.00  0.00    +0.000 C 
ATOM     10  C   UNL     1     -57.060 -58.265 -39.077  0.00  0.00    +0.000 C 
ATOM     11  C   UNL     1     -57.742 -58.645 -37.851  0.00  0.00    +0.000 C 
ATOM     12  C   UNL     1     -59.765 -58.699 -39.251  0.00  0.00    +0.000 C 
ATOM     13  C   UNL     1     -57.729 -60.200 -37.854  0.00  0.00    +0.000 C 
ATOM     14  C   UNL     1     -59.124 -58.289 -38.042  0.00  0.00    +0.000 C 
ATOM     15  C   UNL     1     -55.116 -60.035 -40.279  0.00  0.00    +0.000 C 
ATOM     16  C   UNL     1     -56.658 -60.375 -42.250  0.00  0.00    +0.000 C 
ATOM     17  C   UNL     1     -60.798 -57.908 -39.918  0.00  0.00    +0.000 C 
ATOM     18  C   UNL     1     -60.368 -59.270 -41.946  0.00  0.00    +0.000 A 
ATOM     19  C   UNL     1     -61.069 -58.227 -41.326  0.00  0.00    +0.000 A 
ATOM     20  C   UNL     1     -60.653 -59.613 -43.286  0.00  0.00    +0.000 A 
ATOM     21  C   UNL     1     -62.036 -57.496 -42.036  0.00  0.00    +0.000 A 
ATOM     22  C   UNL     1     -61.618 -58.895 -44.001  0.00  0.00    +0.000 A 
ATOM     23  C   UNL     1     -62.302 -57.831 -43.361  0.00  0.00    +0.000 A 
ATOM     24  C   UNL     1     -63.256 -57.188 -44.187  0.00  0.00    +0.000 C 
ATOM     25  C   UNL     1     -62.916 -58.597 -46.116  0.00  0.00    +0.000 C 
ATOM     26  C   UNL     1     -63.492 -57.522 -45.307  0.00  0.00    +0.000 C 
ATOM     27  C   UNL     1     -63.962 -59.684 -46.470  0.00  0.00    +0.000 C 
ENDROOT
BRANCH  21  28
ATOM     28  O   UNL     1     -62.739 -56.460 -41.481  0.00  0.00    +0.000 OA
ATOM     29  H   UNL     1     -63.513 -56.810 -40.985  0.00  0.00    +0.000 HD
ENDBRANCH  21  28
BRANCH   8  30
ATOM     30  C   UNL     1     -59.236 -61.847 -39.043  0.00  0.00    +0.000 C 
ATOM     31  C   UNL     1     -60.302 -62.926 -38.802  0.00  0.00    +0.000 C 
BRANCH  31  32
ATOM     32  C   UNL     1     -61.232 -63.807 -38.562  0.00  0.00    +0.000 C 
ATOM     33  C   UNL     1     -60.928 -65.207 -39.060  0.00  0.00    +0.000 C 
BRANCH  32  35
ATOM     34  O   UNL     1     -62.936 -63.983 -36.860  0.00  0.00    +0.000 OA
ATOM     35  C   UNL     1     -62.469 -63.413 -37.835  0.00  0.00    +0.000 C 
BRANCH  35  36
ATOM     36  O   UNL     1     -63.087 -62.323 -38.339  0.00  0.00    +0.000 OA
ATOM     37  H   UNL     1     -63.435 -61.842 -37.559  0.00  0.00    +0.000 HD
ENDBRANCH  35  36
ENDBRANCH  32  35
ENDBRANCH  31  32
ENDBRANCH   8  30
BRANCH  20  38
ATOM     38  C   UNL     1     -59.950 -60.694 -43.914  0.00  0.00    +0.000 C 
ATOM     39  C   UNL     1     -59.205 -61.870 -44.562  0.00  0.00    +0.000 C 
BRANCH  39  40
ATOM     40  C   UNL     1     -58.586 -62.876 -45.097  0.00  0.00    +0.000 C 
ATOM     41  C   UNL     1     -57.134 -62.742 -45.449  0.00  0.00    +0.000 C 
ATOM     42  C   UNL     1     -59.243 -64.221 -45.130  0.00  0.00    +0.000 C 
ENDBRANCH  39  40
ENDBRANCH  20  38
BRANCH  25  43
ATOM     43  C   UNL     1     -62.277 -58.075 -47.339  0.00  0.00    +0.000 C 
BRANCH  43  44
ATOM     44  C   UNL     1     -61.617 -57.538 -48.615  0.00  0.00    +0.000 C 
ATOM     45  C   UNL     1     -60.956 -57.002 -49.893  0.00  0.00    +0.000 C 
BRANCH  45  46
ATOM     46  C   UNL     1     -60.392 -56.554 -50.971  0.00  0.00    +0.000 C 
ATOM     47  C   UNL     1     -60.830 -57.073 -52.306  0.00  0.00    +0.000 C 
ATOM     48  C   UNL     1     -59.193 -55.662 -50.874  0.00  0.00    +0.000 C 
ENDBRANCH  45  46
ENDBRANCH  43  44
ENDBRANCH  25  43
TORSDOF 10
ENDMDL
MODEL 7
REMARK VINA RESULT:      -5.4     61.012     67.168
REMARK  Name = 9852185_GambogicAcid.pdbqt.pdb
REMARK  10 active torsions:
REMARK  status: ('A' for Active; 'I' for Inactive)
REMARK    1  A    between atoms: C_8  and  C_30
REMARK    2  A    between atoms: C_20  and  C_38
REMARK    3  A    between atoms: C_21  and  O_28
REMARK    4  A    between atoms: C_25  and  C_43
REMARK    5  A    between atoms: C_31  and  C_32
REMARK    6  A    between atoms: C_32  and  C_35
REMARK    7  A    between atoms: C_35  and  O_36
REMARK    8  A    between atoms: C_39  and  C_40
REMARK    9  A    between atoms: C_43  and  C_44
REMARK   10  A    between atoms: C_45  and  C_46
REMARK                            x       y       z     vdW  Elec       q    Type
REMARK                         _______ _______ _______ _____ _____    ______ ____
ROOT
ATOM      1  O   UNL     1     -60.909 -56.823 -14.952  0.00  0.00    +0.000 OA
ATOM      2  O   UNL     1     -63.129 -57.756 -13.372  0.00  0.00    +0.000 OA
ATOM      3  O   UNL     1     -61.215 -57.861 -17.936  0.00  0.00    +0.000 OA
ATOM      4  O   UNL     1     -65.210 -61.083 -14.619  0.00  0.00    +0.000 OA
ATOM      5  O   UNL     1     -65.400 -57.672  -9.198  0.00  0.00    +0.000 OA
ATOM      6  C   UNL     1     -62.597 -58.454 -14.489  0.00  0.00    +0.000 C 
ATOM      7  C   UNL     1     -61.174 -59.056 -14.207  0.00  0.00    +0.000 C 
ATOM      8  C   UNL     1     -62.034 -57.457 -15.580  0.00  0.00    +0.000 C 
ATOM      9  C   UNL     1     -60.309 -57.797 -14.082  0.00  0.00    +0.000 C 
ATOM     10  C   UNL     1     -60.876 -59.977 -15.305  0.00  0.00    +0.000 C 
ATOM     11  C   UNL     1     -61.605 -59.836 -16.554  0.00  0.00    +0.000 C 
ATOM     12  C   UNL     1     -63.568 -59.470 -15.116  0.00  0.00    +0.000 C 
ATOM     13  C   UNL     1     -61.577 -58.312 -16.861  0.00  0.00    +0.000 C 
ATOM     14  C   UNL     1     -62.981 -60.123 -16.243  0.00  0.00    +0.000 C 
ATOM     15  C   UNL     1     -58.868 -58.038 -14.554  0.00  0.00    +0.000 C 
ATOM     16  C   UNL     1     -60.324 -57.287 -12.632  0.00  0.00    +0.000 C 
ATOM     17  C   UNL     1     -64.580 -60.095 -14.266  0.00  0.00    +0.000 C 
ATOM     18  C   UNL     1     -64.053 -58.365 -12.567  0.00  0.00    +0.000 A 
ATOM     19  C   UNL     1     -64.789 -59.499 -12.940  0.00  0.00    +0.000 A 
ATOM     20  C   UNL     1     -64.280 -57.759 -11.312  0.00  0.00    +0.000 A 
ATOM     21  C   UNL     1     -65.732 -60.057 -12.061  0.00  0.00    +0.000 A 
ATOM     22  C   UNL     1     -65.221 -58.304 -10.432  0.00  0.00    +0.000 A 
ATOM     23  C   UNL     1     -65.940 -59.462 -10.820  0.00  0.00    +0.000 A 
ATOM     24  C   UNL     1     -66.866 -59.912  -9.847  0.00  0.00    +0.000 C 
ATOM     25  C   UNL     1     -66.433 -58.154  -8.251  0.00  0.00    +0.000 C 
ATOM     26  C   UNL     1     -67.052 -59.358  -8.808  0.00  0.00    +0.000 C 
ATOM     27  C   UNL     1     -67.454 -57.001  -8.080  0.00  0.00    +0.000 C 
ENDROOT
BRANCH  21  28
ATOM     28  O   UNL     1     -66.467 -61.170 -12.372  0.00  0.00    +0.000 OA
ATOM     29  H   UNL     1     -66.214 -61.913 -11.779  0.00  0.00    +0.000 HD
ENDBRANCH  21  28
BRANCH   8  30
ATOM     30  C   UNL     1     -63.018 -56.436 -15.966  0.00  0.00    +0.000 C 
ATOM     31  C   UNL     1     -64.081 -55.407 -16.380  0.00  0.00    +0.000 C 
BRANCH  31  32
ATOM     32  C   UNL     1     -65.008 -54.575 -16.764  0.00  0.00    +0.000 C 
ATOM     33  C   UNL     1     -66.108 -54.334 -15.747  0.00  0.00    +0.000 C 
BRANCH  32  35
ATOM     34  O   UNL     1     -63.913 -53.508 -18.632  0.00  0.00    +0.000 OA
ATOM     35  C   UNL     1     -64.930 -53.929 -18.102  0.00  0.00    +0.000 C 
BRANCH  35  36
ATOM     36  O   UNL     1     -66.116 -53.825 -18.739  0.00  0.00    +0.000 OA
ATOM     37  H   UNL     1     -66.728 -54.405 -18.237  0.00  0.00    +0.000 HD
ENDBRANCH  35  36
ENDBRANCH  32  35
ENDBRANCH  31  32
ENDBRANCH   8  30
BRANCH  20  38
ATOM     38  C   UNL     1     -63.541 -56.588 -10.939  0.00  0.00    +0.000 C 
ATOM     39  C   UNL     1     -62.759 -55.338 -10.509  0.00  0.00    +0.000 C 
BRANCH  39  40
ATOM     40  C   UNL     1     -62.100 -54.289 -10.127  0.00  0.00    +0.000 C 
ATOM     41  C   UNL     1     -60.602 -54.299 -10.189  0.00  0.00    +0.000 C 
ATOM     42  C   UNL     1     -62.830 -53.007  -9.864  0.00  0.00    +0.000 C 
ENDBRANCH  39  40
ENDBRANCH  20  38
BRANCH  25  43
ATOM     43  C   UNL     1     -65.749 -58.434  -6.974  0.00  0.00    +0.000 C 
BRANCH  43  44
ATOM     44  C   UNL     1     -65.040 -58.734  -5.648  0.00  0.00    +0.000 C 
ATOM     45  C   UNL     1     -64.329 -59.032  -4.319  0.00  0.00    +0.000 C 
BRANCH  45  46
ATOM     46  C   UNL     1     -63.723 -59.286  -3.202  0.00  0.00    +0.000 C 
ATOM     47  C   UNL     1     -64.506 -59.813  -2.039  0.00  0.00    +0.000 C 
ATOM     48  C   UNL     1     -62.292 -58.888  -3.019  0.00  0.00    +0.000 C 
ENDBRANCH  45  46
ENDBRANCH  43  44
ENDBRANCH  25  43
TORSDOF 10
ENDMDL
MODEL 8
REMARK VINA RESULT:      -5.4      5.887     12.562
REMARK  Name = 9852185_GambogicAcid.pdbqt.pdb
REMARK  10 active torsions:
REMARK  status: ('A' for Active; 'I' for Inactive)
REMARK    1  A    between atoms: C_8  and  C_30
REMARK    2  A    between atoms: C_20  and  C_38
REMARK    3  A    between atoms: C_21  and  O_28
REMARK    4  A    between atoms: C_25  and  C_43
REMARK    5  A    between atoms: C_31  and  C_32
REMARK    6  A    between atoms: C_32  and  C_35
REMARK    7  A    between atoms: C_35  and  O_36
REMARK    8  A    between atoms: C_39  and  C_40
REMARK    9  A    between atoms: C_43  and  C_44
REMARK   10  A    between atoms: C_45  and  C_46
REMARK                            x       y       z     vdW  Elec       q    Type
REMARK                         _______ _______ _______ _____ _____    ______ ____
ROOT
ATOM      1  O   UNL     1     -59.661 -49.027 -79.604  0.00  0.00    +0.000 OA
ATOM      2  O   UNL     1     -58.830 -51.668 -80.401  0.00  0.00    +0.000 OA
ATOM      3  O   UNL     1     -57.140 -47.101 -79.509  0.00  0.00    +0.000 OA
ATOM      4  O   UNL     1     -54.904 -52.778 -79.847  0.00  0.00    +0.000 OA
ATOM      5  O   UNL     1     -60.107 -56.089 -81.588  0.00  0.00    +0.000 OA
ATOM      6  C   UNL     1     -58.009 -50.756 -79.684  0.00  0.00    +0.000 C 
ATOM      7  C   UNL     1     -58.490 -50.539 -78.205  0.00  0.00    +0.000 C 
ATOM      8  C   UNL     1     -58.326 -49.258 -80.080  0.00  0.00    +0.000 C 
ATOM      9  C   UNL     1     -59.818 -49.800 -78.401  0.00  0.00    +0.000 C 
ATOM     10  C   UNL     1     -57.416 -49.829 -77.508  0.00  0.00    +0.000 C 
ATOM     11  C   UNL     1     -56.436 -49.099 -78.293  0.00  0.00    +0.000 C 
ATOM     12  C   UNL     1     -56.502 -51.050 -79.791  0.00  0.00    +0.000 C 
ATOM     13  C   UNL     1     -57.272 -48.302 -79.335  0.00  0.00    +0.000 C 
ATOM     14  C   UNL     1     -55.733 -50.089 -79.067  0.00  0.00    +0.000 C 
ATOM     15  C   UNL     1     -60.117 -48.833 -77.247  0.00  0.00    +0.000 C 
ATOM     16  C   UNL     1     -60.965 -50.809 -78.571  0.00  0.00    +0.000 C 
ATOM     17  C   UNL     1     -56.066 -52.429 -80.004  0.00  0.00    +0.000 C 
ATOM     18  C   UNL     1     -58.423 -52.964 -80.565  0.00  0.00    +0.000 A 
ATOM     19  C   UNL     1     -57.101 -53.397 -80.389  0.00  0.00    +0.000 A 
ATOM     20  C   UNL     1     -59.416 -53.879 -80.979  0.00  0.00    +0.000 A 
ATOM     21  C   UNL     1     -56.760 -54.744 -80.594  0.00  0.00    +0.000 A 
ATOM     22  C   UNL     1     -59.086 -55.222 -81.190  0.00  0.00    +0.000 A 
ATOM     23  C   UNL     1     -57.747 -55.643 -80.988  0.00  0.00    +0.000 A 
ATOM     24  C   UNL     1     -57.539 -57.022 -81.239  0.00  0.00    +0.000 C 
ATOM     25  C   UNL     1     -59.808 -57.507 -81.901  0.00  0.00    +0.000 C 
ATOM     26  C   UNL     1     -58.395 -57.761 -81.615  0.00  0.00    +0.000 C 
ATOM     27  C   UNL     1     -60.147 -57.714 -83.398  0.00  0.00    +0.000 C 
ENDROOT
BRANCH  21  28
ATOM     28  O   UNL     1     -55.487 -55.221 -80.423  0.00  0.00    +0.000 OA
ATOM     29  H   UNL     1     -54.867 -54.736 -81.013  0.00  0.00    +0.000 HD
ENDBRANCH  21  28
BRANCH   8  30
ATOM     30  C   UNL     1     -58.281 -49.040 -81.533  0.00  0.00    +0.000 C 
ATOM     31  C   UNL     1     -58.199 -48.853 -83.055  0.00  0.00    +0.000 C 
BRANCH  31  32
ATOM     32  C   UNL     1     -58.076 -48.717 -84.345  0.00  0.00    +0.000 C 
ATOM     33  C   UNL     1     -58.049 -47.281 -84.835  0.00  0.00    +0.000 C 
BRANCH  32  35
ATOM     34  O   UNL     1     -58.382 -50.010 -86.362  0.00  0.00    +0.000 OA
ATOM     35  C   UNL     1     -57.958 -49.915 -85.219  0.00  0.00    +0.000 C 
BRANCH  35  36
ATOM     36  O   UNL     1     -57.316 -50.957 -84.649  0.00  0.00    +0.000 OA
ATOM     37  H   UNL     1     -56.431 -50.975 -85.071  0.00  0.00    +0.000 HD
ENDBRANCH  35  36
ENDBRANCH  32  35
ENDBRANCH  31  32
ENDBRANCH   8  30
BRANCH  20  38
ATOM     38  C   UNL     1     -60.764 -53.432 -81.178  0.00  0.00    +0.000 C 
ATOM     39  C   UNL     1     -62.199 -52.924 -81.381  0.00  0.00    +0.000 C 
BRANCH  39  40
ATOM     40  C   UNL     1     -63.404 -52.476 -81.550  0.00  0.00    +0.000 C 
ATOM     41  C   UNL     1     -64.157 -52.841 -82.794  0.00  0.00    +0.000 C 
ATOM     42  C   UNL     1     -64.117 -51.812 -80.411  0.00  0.00    +0.000 C 
ENDBRANCH  39  40
ENDBRANCH  20  38
BRANCH  25  43
ATOM     43  C   UNL     1     -60.691 -58.329 -81.051  0.00  0.00    +0.000 C 
BRANCH  43  44
ATOM     44  C   UNL     1     -61.602 -59.186 -80.164  0.00  0.00    +0.000 C 
ATOM     45  C   UNL     1     -62.514 -60.046 -79.276  0.00  0.00    +0.000 C 
BRANCH  45  46
ATOM     46  C   UNL     1     -63.287 -60.773 -78.533  0.00  0.00    +0.000 C 
ATOM     47  C   UNL     1     -63.813 -62.073 -79.062  0.00  0.00    +0.000 C 
ATOM     48  C   UNL     1     -63.796 -60.238 -77.231  0.00  0.00    +0.000 C 
ENDBRANCH  45  46
ENDBRANCH  43  44
ENDBRANCH  25  43
TORSDOF 10
ENDMDL
MODEL 9
REMARK VINA RESULT:      -5.3     22.622     28.332
REMARK  Name = 9852185_GambogicAcid.pdbqt.pdb
REMARK  10 active torsions:
REMARK  status: ('A' for Active; 'I' for Inactive)
REMARK    1  A    between atoms: C_8  and  C_30
REMARK    2  A    between atoms: C_20  and  C_38
REMARK    3  A    between atoms: C_21  and  O_28
REMARK    4  A    between atoms: C_25  and  C_43
REMARK    5  A    between atoms: C_31  and  C_32
REMARK    6  A    between atoms: C_32  and  C_35
REMARK    7  A    between atoms: C_35  and  O_36
REMARK    8  A    between atoms: C_39  and  C_40
REMARK    9  A    between atoms: C_43  and  C_44
REMARK   10  A    between atoms: C_45  and  C_46
REMARK                            x       y       z     vdW  Elec       q    Type
REMARK                         _______ _______ _______ _____ _____    ______ ____
ROOT
ATOM      1  O   UNL     1     -65.444 -42.545 -58.954  0.00  0.00    +0.000 OA
ATOM      2  O   UNL     1     -64.461 -44.018 -56.682  0.00  0.00    +0.000 OA
ATOM      3  O   UNL     1     -63.487 -40.126 -59.581  0.00  0.00    +0.000 OA
ATOM      4  O   UNL     1     -61.936 -42.143 -54.025  0.00  0.00    +0.000 OA
ATOM      5  O   UNL     1     -64.920 -47.810 -53.854  0.00  0.00    +0.000 OA
ATOM      6  C   UNL     1     -64.254 -42.626 -56.879  0.00  0.00    +0.000 C 
ATOM      7  C   UNL     1     -65.572 -41.788 -56.712  0.00  0.00    +0.000 C 
ATOM      8  C   UNL     1     -64.141 -42.270 -58.415  0.00  0.00    +0.000 C 
ATOM      9  C   UNL     1     -66.398 -42.238 -57.923  0.00  0.00    +0.000 C 
ATOM     10  C   UNL     1     -65.175 -40.381 -56.647  0.00  0.00    +0.000 C 
ATOM     11  C   UNL     1     -63.877 -39.995 -57.174  0.00  0.00    +0.000 C 
ATOM     12  C   UNL     1     -63.068 -42.049 -56.088  0.00  0.00    +0.000 C 
ATOM     13  C   UNL     1     -63.775 -40.712 -58.550  0.00  0.00    +0.000 C 
ATOM     14  C   UNL     1     -62.903 -40.653 -56.343  0.00  0.00    +0.000 C 
ATOM     15  C   UNL     1     -67.319 -41.124 -58.440  0.00  0.00    +0.000 C 
ATOM     16  C   UNL     1     -67.213 -43.492 -57.571  0.00  0.00    +0.000 C 
ATOM     17  C   UNL     1     -62.687 -42.682 -54.827  0.00  0.00    +0.000 C 
ATOM     18  C   UNL     1     -64.127 -44.592 -55.485  0.00  0.00    +0.000 A 
ATOM     19  C   UNL     1     -63.274 -43.999 -54.544  0.00  0.00    +0.000 A 
ATOM     20  C   UNL     1     -64.661 -45.876 -55.242  0.00  0.00    +0.000 A 
ATOM     21  C   UNL     1     -62.967 -44.660 -53.343  0.00  0.00    +0.000 A 
ATOM     22  C   UNL     1     -64.358 -46.546 -54.051  0.00  0.00    +0.000 A 
ATOM     23  C   UNL     1     -63.509 -45.920 -53.105  0.00  0.00    +0.000 A 
ATOM     24  C   UNL     1     -63.273 -46.701 -51.946  0.00  0.00    +0.000 C 
ATOM     25  C   UNL     1     -64.579 -48.604 -52.649  0.00  0.00    +0.000 C 
ATOM     26  C   UNL     1     -63.718 -47.795 -51.786  0.00  0.00    +0.000 C 
ATOM     27  C   UNL     1     -63.866 -49.886 -53.147  0.00  0.00    +0.000 C 
ENDROOT
BRANCH  21  28
ATOM     28  O   UNL     1     -62.150 -44.119 -52.387  0.00  0.00    +0.000 OA
ATOM     29  H   UNL     1     -61.264 -43.932 -52.771  0.00  0.00    +0.000 HD
ENDBRANCH  21  28
BRANCH   8  30
ATOM     30  C   UNL     1     -63.142 -43.095 -59.110  0.00  0.00    +0.000 C 
ATOM     31  C   UNL     1     -62.137 -43.976 -59.869  0.00  0.00    +0.000 C 
BRANCH  31  32
ATOM     32  C   UNL     1     -61.328 -44.757 -60.528  0.00  0.00    +0.000 C 
ATOM     33  C   UNL     1     -60.116 -44.063 -61.121  0.00  0.00    +0.000 C 
BRANCH  32  35
ATOM     34  O   UNL     1     -61.241 -47.075 -59.860  0.00  0.00    +0.000 OA
ATOM     35  C   UNL     1     -61.615 -46.212 -60.640  0.00  0.00    +0.000 C 
BRANCH  35  36
ATOM     36  O   UNL     1     -62.358 -46.550 -61.716  0.00  0.00    +0.000 OA
ATOM     37  H   UNL     1     -61.715 -46.881 -62.378  0.00  0.00    +0.000 HD
ENDBRANCH  35  36
ENDBRANCH  32  35
ENDBRANCH  31  32
ENDBRANCH   8  30
BRANCH  20  38
ATOM     38  C   UNL     1     -65.518 -46.492 -56.213  0.00  0.00    +0.000 C 
ATOM     39  C   UNL     1     -66.438 -47.123 -57.269  0.00  0.00    +0.000 C 
BRANCH  39  40
ATOM     40  C   UNL     1     -67.213 -47.639 -58.171  0.00  0.00    +0.000 C 
ATOM     41  C   UNL     1     -68.542 -48.201 -57.765  0.00  0.00    +0.000 C 
ATOM     42  C   UNL     1     -66.892 -47.451 -59.622  0.00  0.00    +0.000 C 
ENDBRANCH  39  40
ENDBRANCH  20  38
BRANCH  25  43
ATOM     43  C   UNL     1     -65.852 -48.943 -51.984  0.00  0.00    +0.000 C 
BRANCH  43  44
ATOM     44  C   UNL     1     -67.172 -49.293 -51.286  0.00  0.00    +0.000 C 
ATOM     45  C   UNL     1     -68.493 -49.644 -50.586  0.00  0.00    +0.000 C 
BRANCH  45  46
ATOM     46  C   UNL     1     -69.608 -49.947 -49.999  0.00  0.00    +0.000 C 
ATOM     47  C   UNL     1     -69.598 -50.892 -48.836  0.00  0.00    +0.000 C 
ATOM     48  C   UNL     1     -70.910 -49.500 -50.586  0.00  0.00    +0.000 C 
ENDBRANCH  45  46
ENDBRANCH  43  44
ENDBRANCH  25  43
TORSDOF 10
ENDMDL
