MODEL 1
REMARK VINA RESULT:      -6.0      0.000      0.000
REMARK  Name = AFLATOXIN.pdbqt.pdb
REMARK  1 active torsions:
REMARK  status: ('A' for Active; 'I' for Inactive)
REMARK    1  A    between atoms: C_15  and  O_23
REMARK                            x       y       z     vdW  Elec       q    Type
REMARK                         _______ _______ _______ _____ _____    ______ ____
ROOT
ATOM      1  O   UNL     1     -58.459 -56.075 -58.755  0.00  0.00    +0.000 OA
ATOM      2  O   UNL     1     -58.599 -54.619 -60.747  0.00  0.00    +0.000 OA
ATOM      3  O   UNL     1     -63.156 -55.985 -58.435  0.00  0.00    +0.000 OA
ATOM      4  O   UNL     1     -65.812 -56.702 -54.276  0.00  0.00    +0.000 OA
ATOM      5  O   UNL     1     -65.406 -56.076 -58.496  0.00  0.00    +0.000 OA
ATOM      6  O   UNL     1     -66.806 -56.225 -56.236  0.00  0.00    +0.000 OA
ATOM      7  C   UNL     1     -60.475 -55.729 -59.885  0.00  0.00    +0.000 C 
ATOM      8  C   UNL     1     -60.777 -56.085 -58.513  0.00  0.00    +0.000 A 
ATOM      9  C   UNL     1     -58.996 -55.747 -60.004  0.00  0.00    +0.000 C 
ATOM     10  C   UNL     1     -59.534 -56.308 -57.912  0.00  0.00    +0.000 A 
ATOM     11  C   UNL     1     -61.942 -56.205 -57.780  0.00  0.00    +0.000 A 
ATOM     12  C   UNL     1     -61.899 -56.556 -56.432  0.00  0.00    +0.000 A 
ATOM     13  C   UNL     1     -60.912 -54.601 -60.627  0.00  0.00    +0.000 C 
ATOM     14  C   UNL     1     -63.191 -56.608 -55.725  0.00  0.00    +0.000 A 
ATOM     15  C   UNL     1     -60.623 -56.819 -55.857  0.00  0.00    +0.000 A 
ATOM     16  C   UNL     1     -59.429 -56.666 -56.587  0.00  0.00    +0.000 A 
ATOM     17  C   UNL     1     -63.269 -56.842 -54.333  0.00  0.00    +0.000 A 
ATOM     18  C   UNL     1     -64.386 -56.414 -56.355  0.00  0.00    +0.000 A 
ATOM     19  C   UNL     1     -59.843 -54.200 -60.980  0.00  0.00    +0.000 C 
ATOM     20  C   UNL     1     -64.624 -56.872 -53.746  0.00  0.00    +0.000 A 
ATOM     21  C   UNL     1     -64.391 -56.153 -57.820  0.00  0.00    +0.000 A 
ATOM     22  C   UNL     1     -65.758 -56.442 -55.639  0.00  0.00    +0.000 A 
ENDROOT
BRANCH  15  23
ATOM     23  O   UNL     1     -60.502 -57.151 -54.525  0.00  0.00    +0.000 OA
ATOM     24  C   UNL     1     -59.217 -57.647 -54.250  0.00  0.00    +0.000 C 
ENDBRANCH  15  23
TORSDOF 1
ENDMDL
MODEL 2
REMARK VINA RESULT:      -5.9     31.465     35.716
REMARK  Name = AFLATOXIN.pdbqt.pdb
REMARK  1 active torsions:
REMARK  status: ('A' for Active; 'I' for Inactive)
REMARK    1  A    between atoms: C_15  and  O_23
REMARK                            x       y       z     vdW  Elec       q    Type
REMARK                         _______ _______ _______ _____ _____    ______ ____
ROOT
ATOM      1  O   UNL     1     -75.115 -53.772 -21.927  0.00  0.00    +0.000 OA
ATOM      2  O   UNL     1     -73.988 -53.766 -19.728  0.00  0.00    +0.000 OA
ATOM      3  O   UNL     1     -72.894 -57.787 -22.986  0.00  0.00    +0.000 OA
ATOM      4  O   UNL     1     -71.866 -59.430 -27.581  0.00  0.00    +0.000 OA
ATOM      5  O   UNL     1     -71.973 -59.817 -23.314  0.00  0.00    +0.000 OA
ATOM      6  O   UNL     1     -71.221 -60.572 -25.754  0.00  0.00    +0.000 OA
ATOM      7  C   UNL     1     -74.033 -55.670 -21.096  0.00  0.00    +0.000 C 
ATOM      8  C   UNL     1     -74.058 -55.756 -22.542  0.00  0.00    +0.000 A 
ATOM      9  C   UNL     1     -74.725 -54.405 -20.743  0.00  0.00    +0.000 C 
ATOM     10  C   UNL     1     -74.744 -54.613 -22.965  0.00  0.00    +0.000 A 
ATOM     11  C   UNL     1     -73.559 -56.656 -23.465  0.00  0.00    +0.000 A 
ATOM     12  C   UNL     1     -73.736 -56.442 -24.831  0.00  0.00    +0.000 A 
ATOM     13  C   UNL     1     -72.922 -55.763 -20.219  0.00  0.00    +0.000 C 
ATOM     14  C   UNL     1     -73.123 -57.431 -25.735  0.00  0.00    +0.000 A 
ATOM     15  C   UNL     1     -74.475 -55.293 -25.231  0.00  0.00    +0.000 A 
ATOM     16  C   UNL     1     -74.957 -54.353 -24.300  0.00  0.00    +0.000 A 
ATOM     17  C   UNL     1     -73.137 -57.266 -27.139  0.00  0.00    +0.000 A 
ATOM     18  C   UNL     1     -72.487 -58.551 -25.282  0.00  0.00    +0.000 A 
ATOM     19  C   UNL     1     -73.086 -54.742 -19.621  0.00  0.00    +0.000 C 
ATOM     20  C   UNL     1     -72.489 -58.329 -27.933  0.00  0.00    +0.000 A 
ATOM     21  C   UNL     1     -72.420 -58.796 -23.816  0.00  0.00    +0.000 A 
ATOM     22  C   UNL     1     -71.815 -59.599 -26.203  0.00  0.00    +0.000 A 
ENDROOT
BRANCH  15  23
ATOM     23  O   UNL     1     -74.672 -55.008 -26.565  0.00  0.00    +0.000 OA
ATOM     24  C   UNL     1     -74.699 -53.619 -26.779  0.00  0.00    +0.000 C 
ENDBRANCH  15  23
TORSDOF 1
ENDMDL
MODEL 3
REMARK VINA RESULT:      -5.8     21.321     25.904
REMARK  Name = AFLATOXIN.pdbqt.pdb
REMARK  1 active torsions:
REMARK  status: ('A' for Active; 'I' for Inactive)
REMARK    1  A    between atoms: C_15  and  O_23
REMARK                            x       y       z     vdW  Elec       q    Type
REMARK                         _______ _______ _______ _____ _____    ______ ____
ROOT
ATOM      1  O   UNL     1     -72.758 -54.218 -31.518  0.00  0.00    +0.000 OA
ATOM      2  O   UNL     1     -71.765 -53.799 -29.294  0.00  0.00    +0.000 OA
ATOM      3  O   UNL     1     -69.192 -57.136 -32.492  0.00  0.00    +0.000 OA
ATOM      4  O   UNL     1     -67.523 -58.285 -37.048  0.00  0.00    +0.000 OA
ATOM      5  O   UNL     1     -67.582 -58.685 -32.781  0.00  0.00    +0.000 OA
ATOM      6  O   UNL     1     -66.547 -59.110 -35.197  0.00  0.00    +0.000 OA
ATOM      7  C   UNL     1     -71.075 -55.586 -30.646  0.00  0.00    +0.000 C 
ATOM      8  C   UNL     1     -71.031 -55.674 -32.092  0.00  0.00    +0.000 A 
ATOM      9  C   UNL     1     -72.191 -54.664 -30.320  0.00  0.00    +0.000 C 
ATOM     10  C   UNL     1     -72.079 -54.863 -32.539  0.00  0.00    +0.000 A 
ATOM     11  C   UNL     1     -70.214 -56.328 -32.995  0.00  0.00    +0.000 A 
ATOM     12  C   UNL     1     -70.425 -56.194 -34.367  0.00  0.00    +0.000 A 
ATOM     13  C   UNL     1     -70.028 -55.264 -29.744  0.00  0.00    +0.000 C 
ATOM     14  C   UNL     1     -69.470 -56.888 -35.248  0.00  0.00    +0.000 A 
ATOM     15  C   UNL     1     -71.525 -55.397 -34.793  0.00  0.00    +0.000 A 
ATOM     16  C   UNL     1     -72.340 -54.700 -33.881  0.00  0.00    +0.000 A 
ATOM     17  C   UNL     1     -69.509 -56.740 -36.653  0.00  0.00    +0.000 A 
ATOM     18  C   UNL     1     -68.478 -57.696 -34.771  0.00  0.00    +0.000 A 
ATOM     19  C   UNL     1     -70.570 -54.375 -29.158  0.00  0.00    +0.000 C 
ATOM     20  C   UNL     1     -68.497 -57.490 -37.423  0.00  0.00    +0.000 A 
ATOM     21  C   UNL     1     -68.361 -57.899 -33.302  0.00  0.00    +0.000 A 
ATOM     22  C   UNL     1     -67.446 -58.423 -35.668  0.00  0.00    +0.000 A 
ENDROOT
BRANCH  15  23
ATOM     23  O   UNL     1     -71.780 -55.204 -36.133  0.00  0.00    +0.000 OA
ATOM     24  C   UNL     1     -71.958 -53.838 -36.415  0.00  0.00    +0.000 C 
ENDBRANCH  15  23
TORSDOF 1
ENDMDL
MODEL 4
REMARK VINA RESULT:      -5.7     35.196     38.473
REMARK  Name = AFLATOXIN.pdbqt.pdb
REMARK  1 active torsions:
REMARK  status: ('A' for Active; 'I' for Inactive)
REMARK    1  A    between atoms: C_15  and  O_23
REMARK                            x       y       z     vdW  Elec       q    Type
REMARK                         _______ _______ _______ _____ _____    ______ ____
ROOT
ATOM      1  O   UNL     1     -63.056 -50.174 -21.745  0.00  0.00    +0.000 OA
ATOM      2  O   UNL     1     -61.880 -51.276 -23.619  0.00  0.00    +0.000 OA
ATOM      3  O   UNL     1     -62.490 -54.078 -19.175  0.00  0.00    +0.000 OA
ATOM      4  O   UNL     1     -65.370 -55.505 -15.362  0.00  0.00    +0.000 OA
ATOM      5  O   UNL     1     -61.972 -55.894 -17.945  0.00  0.00    +0.000 OA
ATOM      6  O   UNL     1     -63.647 -56.767 -16.068  0.00  0.00    +0.000 OA
ATOM      7  C   UNL     1     -61.820 -52.134 -21.438  0.00  0.00    +0.000 C 
ATOM      8  C   UNL     1     -62.828 -52.063 -20.400  0.00  0.00    +0.000 A 
ATOM      9  C   UNL     1     -61.987 -50.912 -22.264  0.00  0.00    +0.000 C 
ATOM     10  C   UNL     1     -63.501 -50.858 -20.625  0.00  0.00    +0.000 A 
ATOM     11  C   UNL     1     -63.207 -52.894 -19.363  0.00  0.00    +0.000 A 
ATOM     12  C   UNL     1     -64.261 -52.543 -18.521  0.00  0.00    +0.000 A 
ATOM     13  C   UNL     1     -61.558 -53.188 -22.351  0.00  0.00    +0.000 C 
ATOM     14  C   UNL     1     -64.621 -53.519 -17.478  0.00  0.00    +0.000 A 
ATOM     15  C   UNL     1     -64.900 -51.291 -18.748  0.00  0.00    +0.000 A 
ATOM     16  C   UNL     1     -64.544 -50.454 -19.823  0.00  0.00    +0.000 A 
ATOM     17  C   UNL     1     -65.740 -53.330 -16.636  0.00  0.00    +0.000 A 
ATOM     18  C   UNL     1     -63.919 -54.671 -17.270  0.00  0.00    +0.000 A 
ATOM     19  C   UNL     1     -61.616 -52.558 -23.365  0.00  0.00    +0.000 C 
ATOM     20  C   UNL     1     -65.992 -54.382 -15.630  0.00  0.00    +0.000 A 
ATOM     21  C   UNL     1     -62.730 -54.951 -18.120  0.00  0.00    +0.000 A 
ATOM     22  C   UNL     1     -64.282 -55.727 -16.197  0.00  0.00    +0.000 A 
ENDROOT
BRANCH  15  23
ATOM     23  O   UNL     1     -65.963 -50.888 -17.968  0.00  0.00    +0.000 OA
ATOM     24  C   UNL     1     -67.093 -50.627 -18.762  0.00  0.00    +0.000 C 
ENDBRANCH  15  23
TORSDOF 1
ENDMDL
MODEL 5
REMARK VINA RESULT:      -5.6     33.288     36.829
REMARK  Name = AFLATOXIN.pdbqt.pdb
REMARK  1 active torsions:
REMARK  status: ('A' for Active; 'I' for Inactive)
REMARK    1  A    between atoms: C_15  and  O_23
REMARK                            x       y       z     vdW  Elec       q    Type
REMARK                         _______ _______ _______ _____ _____    ______ ____
ROOT
ATOM      1  O   UNL     1     -64.008 -51.827 -17.806  0.00  0.00    +0.000 OA
ATOM      2  O   UNL     1     -63.483 -53.597 -16.163  0.00  0.00    +0.000 OA
ATOM      3  O   UNL     1     -62.302 -54.580 -21.224  0.00  0.00    +0.000 OA
ATOM      4  O   UNL     1     -60.449 -53.014 -25.581  0.00  0.00    +0.000 OA
ATOM      5  O   UNL     1     -61.684 -56.048 -22.818  0.00  0.00    +0.000 OA
ATOM      6  O   UNL     1     -60.483 -55.195 -25.036  0.00  0.00    +0.000 OA
ATOM      7  C   UNL     1     -63.504 -54.010 -18.470  0.00  0.00    +0.000 C 
ATOM      8  C   UNL     1     -63.180 -53.115 -19.563  0.00  0.00    +0.000 A 
ATOM      9  C   UNL     1     -64.039 -53.158 -17.379  0.00  0.00    +0.000 C 
ATOM     10  C   UNL     1     -63.536 -51.841 -19.109  0.00  0.00    +0.000 A 
ATOM     11  C   UNL     1     -62.625 -53.283 -20.817  0.00  0.00    +0.000 A 
ATOM     12  C   UNL     1     -62.416 -52.187 -21.653  0.00  0.00    +0.000 A 
ATOM     13  C   UNL     1     -62.680 -54.978 -17.840  0.00  0.00    +0.000 C 
ATOM     14  C   UNL     1     -61.772 -52.463 -22.949  0.00  0.00    +0.000 A 
ATOM     15  C   UNL     1     -62.827 -50.908 -21.182  0.00  0.00    +0.000 A 
ATOM     16  C   UNL     1     -63.361 -50.723 -19.892  0.00  0.00    +0.000 A 
ATOM     17  C   UNL     1     -61.406 -51.424 -23.835  0.00  0.00    +0.000 A 
ATOM     18  C   UNL     1     -61.468 -53.726 -23.368  0.00  0.00    +0.000 A 
ATOM     19  C   UNL     1     -62.814 -54.612 -16.710  0.00  0.00    +0.000 C 
ATOM     20  C   UNL     1     -60.769 -51.835 -25.102  0.00  0.00    +0.000 A 
ATOM     21  C   UNL     1     -61.813 -54.877 -22.490  0.00  0.00    +0.000 A 
ATOM     22  C   UNL     1     -60.774 -54.049 -24.714  0.00  0.00    +0.000 A 
ENDROOT
BRANCH  15  23
ATOM     23  O   UNL     1     -62.633 -49.777 -21.946  0.00  0.00    +0.000 OA
ATOM     24  C   UNL     1     -61.993 -48.774 -21.197  0.00  0.00    +0.000 C 
ENDBRANCH  15  23
TORSDOF 1
ENDMDL
MODEL 6
REMARK VINA RESULT:      -5.6      9.466     10.377
REMARK  Name = AFLATOXIN.pdbqt.pdb
REMARK  1 active torsions:
REMARK  status: ('A' for Active; 'I' for Inactive)
REMARK    1  A    between atoms: C_15  and  O_23
REMARK                            x       y       z     vdW  Elec       q    Type
REMARK                         _______ _______ _______ _____ _____    ______ ____
ROOT
ATOM      1  O   UNL     1     -64.378 -47.229 -60.753  0.00  0.00    +0.000 OA
ATOM      2  O   UNL     1     -61.947 -47.028 -61.147  0.00  0.00    +0.000 OA
ATOM      3  O   UNL     1     -63.684 -46.039 -56.250  0.00  0.00    +0.000 OA
ATOM      4  O   UNL     1     -66.648 -47.240 -52.424  0.00  0.00    +0.000 OA
ATOM      5  O   UNL     1     -63.289 -45.240 -54.181  0.00  0.00    +0.000 OA
ATOM      6  O   UNL     1     -64.745 -46.082 -52.116  0.00  0.00    +0.000 OA
ATOM      7  C   UNL     1     -62.968 -46.167 -59.221  0.00  0.00    +0.000 C 
ATOM      8  C   UNL     1     -64.132 -46.653 -58.508  0.00  0.00    +0.000 A 
ATOM      9  C   UNL     1     -63.167 -46.538 -60.644  0.00  0.00    +0.000 C 
ATOM     10  C   UNL     1     -64.940 -47.243 -59.486  0.00  0.00    +0.000 A 
ATOM     11  C   UNL     1     -64.523 -46.654 -57.182  0.00  0.00    +0.000 A 
ATOM     12  C   UNL     1     -65.730 -47.237 -56.799  0.00  0.00    +0.000 A 
ATOM     13  C   UNL     1     -61.596 -46.400 -58.945  0.00  0.00    +0.000 C 
ATOM     14  C   UNL     1     -66.032 -47.232 -55.357  0.00  0.00    +0.000 A 
ATOM     15  C   UNL     1     -66.551 -47.791 -57.821  0.00  0.00    +0.000 A 
ATOM     16  C   UNL     1     -66.146 -47.825 -59.169  0.00  0.00    +0.000 A 
ATOM     17  C   UNL     1     -67.168 -47.889 -54.832  0.00  0.00    +0.000 A 
ATOM     18  C   UNL     1     -65.232 -46.619 -54.436  0.00  0.00    +0.000 A 
ATOM     19  C   UNL     1     -61.269 -46.806 -60.021  0.00  0.00    +0.000 C 
ATOM     20  C   UNL     1     -67.358 -47.808 -53.370  0.00  0.00    +0.000 A 
ATOM     21  C   UNL     1     -64.010 -45.911 -54.906  0.00  0.00    +0.000 A 
ATOM     22  C   UNL     1     -65.509 -46.612 -52.913  0.00  0.00    +0.000 A 
ENDROOT
BRANCH  15  23
ATOM     23  O   UNL     1     -67.748 -48.401 -57.513  0.00  0.00    +0.000 OA
ATOM     24  C   UNL     1     -68.813 -47.778 -58.185  0.00  0.00    +0.000 C 
ENDBRANCH  15  23
TORSDOF 1
ENDMDL
MODEL 7
REMARK VINA RESULT:      -5.5     13.866     16.289
REMARK  Name = AFLATOXIN.pdbqt.pdb
REMARK  1 active torsions:
REMARK  status: ('A' for Active; 'I' for Inactive)
REMARK    1  A    between atoms: C_15  and  O_23
REMARK                            x       y       z     vdW  Elec       q    Type
REMARK                         _______ _______ _______ _____ _____    ______ ____
ROOT
ATOM      1  O   UNL     1     -65.450 -62.336 -67.537  0.00  0.00    +0.000 OA
ATOM      2  O   UNL     1     -67.459 -61.867 -66.177  0.00  0.00    +0.000 OA
ATOM      3  O   UNL     1     -67.326 -59.840 -71.061  0.00  0.00    +0.000 OA
ATOM      4  O   UNL     1     -66.273 -60.381 -75.905  0.00  0.00    +0.000 OA
ATOM      5  O   UNL     1     -68.193 -58.442 -72.601  0.00  0.00    +0.000 OA
ATOM      6  O   UNL     1     -67.804 -58.894 -75.196  0.00  0.00    +0.000 OA
ATOM      7  C   UNL     1     -66.981 -60.677 -68.140  0.00  0.00    +0.000 C 
ATOM      8  C   UNL     1     -66.299 -61.125 -69.337  0.00  0.00    +0.000 A 
ATOM      9  C   UNL     1     -66.406 -61.459 -67.017  0.00  0.00    +0.000 C 
ATOM     10  C   UNL     1     -65.383 -62.085 -68.898  0.00  0.00    +0.000 A 
ATOM     11  C   UNL     1     -66.404 -60.817 -70.681  0.00  0.00    +0.000 A 
ATOM     12  C   UNL     1     -65.594 -61.454 -71.619  0.00  0.00    +0.000 A 
ATOM     13  C   UNL     1     -68.376 -60.601 -67.887  0.00  0.00    +0.000 C 
ATOM     14  C   UNL     1     -65.816 -61.095 -73.031  0.00  0.00    +0.000 A 
ATOM     15  C   UNL     1     -64.640 -62.397 -71.139  0.00  0.00    +0.000 A 
ATOM     16  C   UNL     1     -64.551 -62.741 -69.777  0.00  0.00    +0.000 A 
ATOM     17  C   UNL     1     -65.138 -61.752 -74.082  0.00  0.00    +0.000 A 
ATOM     18  C   UNL     1     -66.701 -60.129 -73.416  0.00  0.00    +0.000 A 
ATOM     19  C   UNL     1     -68.404 -61.234 -66.874  0.00  0.00    +0.000 C 
ATOM     20  C   UNL     1     -65.450 -61.297 -75.452  0.00  0.00    +0.000 A 
ATOM     21  C   UNL     1     -67.462 -59.394 -72.370  0.00  0.00    +0.000 A 
ATOM     22  C   UNL     1     -66.973 -59.741 -74.890  0.00  0.00    +0.000 A 
ENDROOT
BRANCH  15  23
ATOM     23  O   UNL     1     -63.820 -63.080 -72.012  0.00  0.00    +0.000 OA
ATOM     24  C   UNL     1     -63.081 -64.064 -71.334  0.00  0.00    +0.000 C 
ENDBRANCH  15  23
TORSDOF 1
ENDMDL
MODEL 8
REMARK VINA RESULT:      -5.5      1.661      6.111
REMARK  Name = AFLATOXIN.pdbqt.pdb
REMARK  1 active torsions:
REMARK  status: ('A' for Active; 'I' for Inactive)
REMARK    1  A    between atoms: C_15  and  O_23
REMARK                            x       y       z     vdW  Elec       q    Type
REMARK                         _______ _______ _______ _____ _____    ______ ____
ROOT
ATOM      1  O   UNL     1     -63.557 -56.097 -58.493  0.00  0.00    +0.000 OA
ATOM      2  O   UNL     1     -65.484 -55.359 -57.134  0.00  0.00    +0.000 OA
ATOM      3  O   UNL     1     -61.187 -57.005 -54.526  0.00  0.00    +0.000 OA
ATOM      4  O   UNL     1     -56.224 -57.072 -54.042  0.00  0.00    +0.000 OA
ATOM      5  O   UNL     1     -60.218 -57.627 -52.590  0.00  0.00    +0.000 OA
ATOM      6  O   UNL     1     -57.580 -57.430 -52.283  0.00  0.00    +0.000 OA
ATOM      7  C   UNL     1     -63.704 -56.571 -56.209  0.00  0.00    +0.000 C 
ATOM      8  C   UNL     1     -62.305 -56.571 -56.585  0.00  0.00    +0.000 A 
ATOM      9  C   UNL     1     -64.468 -56.281 -57.447  0.00  0.00    +0.000 C 
ATOM     10  C   UNL     1     -62.296 -56.316 -57.960  0.00  0.00    +0.000 A 
ATOM     11  C   UNL     1     -61.119 -56.738 -55.895  0.00  0.00    +0.000 A 
ATOM     12  C   UNL     1     -59.895 -56.661 -56.559  0.00  0.00    +0.000 A 
ATOM     13  C   UNL     1     -64.346 -55.842 -55.175  0.00  0.00    +0.000 C 
ATOM     14  C   UNL     1     -58.687 -56.801 -55.728  0.00  0.00    +0.000 A 
ATOM     15  C   UNL     1     -59.918 -56.442 -57.966  0.00  0.00    +0.000 A 
ATOM     16  C   UNL     1     -61.120 -56.237 -58.671  0.00  0.00    +0.000 A 
ATOM     17  C   UNL     1     -57.390 -56.631 -56.264  0.00  0.00    +0.000 A 
ATOM     18  C   UNL     1     -58.738 -57.081 -54.392  0.00  0.00    +0.000 A 
ATOM     19  C   UNL     1     -65.201 -55.326 -55.831  0.00  0.00    +0.000 C 
ATOM     20  C   UNL     1     -56.263 -56.800 -55.325  0.00  0.00    +0.000 A 
ATOM     21  C   UNL     1     -60.066 -57.268 -53.748  0.00  0.00    +0.000 A 
ATOM     22  C   UNL     1     -57.490 -57.215 -53.487  0.00  0.00    +0.000 A 
ENDROOT
BRANCH  15  23
ATOM     23  O   UNL     1     -58.747 -56.334 -58.684  0.00  0.00    +0.000 OA
ATOM     24  C   UNL     1     -58.989 -55.782 -59.953  0.00  0.00    +0.000 C 
ENDBRANCH  15  23
TORSDOF 1
ENDMDL
MODEL 9
REMARK VINA RESULT:      -5.4     20.781     22.603
REMARK  Name = AFLATOXIN.pdbqt.pdb
REMARK  1 active torsions:
REMARK  status: ('A' for Active; 'I' for Inactive)
REMARK    1  A    between atoms: C_15  and  O_23
REMARK                            x       y       z     vdW  Elec       q    Type
REMARK                         _______ _______ _______ _____ _____    ______ ____
ROOT
ATOM      1  O   UNL     1     -54.624 -45.964 -77.478  0.00  0.00    +0.000 OA
ATOM      2  O   UNL     1     -52.733 -47.554 -77.419  0.00  0.00    +0.000 OA
ATOM      3  O   UNL     1     -57.591 -49.564 -76.840  0.00  0.00    +0.000 OA
ATOM      4  O   UNL     1     -62.381 -49.679 -78.223  0.00  0.00    +0.000 OA
ATOM      5  O   UNL     1     -58.913 -51.307 -76.302  0.00  0.00    +0.000 OA
ATOM      6  O   UNL     1     -61.397 -51.453 -77.251  0.00  0.00    +0.000 OA
ATOM      7  C   UNL     1     -54.882 -48.152 -76.698  0.00  0.00    +0.000 C 
ATOM      8  C   UNL     1     -56.169 -47.681 -77.170  0.00  0.00    +0.000 A 
ATOM      9  C   UNL     1     -53.931 -47.030 -76.897  0.00  0.00    +0.000 C 
ATOM     10  C   UNL     1     -55.946 -46.365 -77.588  0.00  0.00    +0.000 A 
ATOM     11  C   UNL     1     -57.422 -48.251 -77.286  0.00  0.00    +0.000 A 
ATOM     12  C   UNL     1     -58.487 -47.522 -77.814  0.00  0.00    +0.000 A 
ATOM     13  C   UNL     1     -54.178 -49.329 -77.061  0.00  0.00    +0.000 C 
ATOM     14  C   UNL     1     -59.770 -48.234 -77.943  0.00  0.00    +0.000 A 
ATOM     15  C   UNL     1     -58.241 -46.172 -78.192  0.00  0.00    +0.000 A 
ATOM     16  C   UNL     1     -56.959 -45.594 -78.109  0.00  0.00    +0.000 A 
ATOM     17  C   UNL     1     -60.892 -47.641 -78.566  0.00  0.00    +0.000 A 
ATOM     18  C   UNL     1     -59.955 -49.511 -77.495  0.00  0.00    +0.000 A 
ATOM     19  C   UNL     1     -53.141 -48.823 -77.372  0.00  0.00    +0.000 C 
ATOM     20  C   UNL     1     -62.119 -48.460 -78.630  0.00  0.00    +0.000 A 
ATOM     21  C   UNL     1     -58.821 -50.211 -76.834  0.00  0.00    +0.000 A 
ATOM     22  C   UNL     1     -61.284 -50.294 -77.633  0.00  0.00    +0.000 A 
ENDROOT
BRANCH  15  23
ATOM     23  O   UNL     1     -59.241 -45.398 -78.740  0.00  0.00    +0.000 OA
ATOM     24  C   UNL     1     -59.418 -44.216 -78.001  0.00  0.00    +0.000 C 
ENDBRANCH  15  23
TORSDOF 1
ENDMDL
