MODEL 1
REMARK VINA RESULT:      -7.5      0.000      0.000
REMARK  Name = AZD4547.pdbqt.pdb
REMARK  6 active torsions:
REMARK  status: ('A' for Active; 'I' for Inactive)
REMARK    1  A    between atoms: C_3  and  C_23
REMARK    2  A    between atoms: C_8  and  C_11
REMARK    3  A    between atoms: C_12  and  C_13
REMARK    4  A    between atoms: C_15  and  O_19
REMARK    5  A    between atoms: C_17  and  O_21
REMARK    6  A    between atoms: C_26  and  N_29
REMARK                            x       y       z     vdW  Elec       q    Type
REMARK                         _______ _______ _______ _____ _____    ______ ____
ROOT
ATOM      1  O   UNL     1     -71.769 -58.655 -28.554  0.00  0.00    +0.000 OA
ATOM      2  N   UNL     1     -71.195 -56.423 -28.329  0.00  0.00    +0.000 N 
ATOM      3  C   UNL     1     -71.731 -57.617 -27.902  0.00  0.00    +0.000 C 
ATOM      4  H   UNL     1     -71.190 -55.592 -27.757  0.00  0.00    +0.000 HD
ATOM      5  C   UNL     1     -70.615 -56.227 -29.559  0.00  0.00    +0.000 A 
ATOM      6  N   UNL     1     -70.130 -55.017 -29.858  0.00  0.00    +0.000 NA
ATOM      7  N   UNL     1     -69.645 -55.168 -31.104  0.00  0.00    +0.000 N 
ATOM      8  C   UNL     1     -69.801 -56.426 -31.606  0.00  0.00    +0.000 A 
ATOM      9  H   UNL     1     -69.216 -54.368 -31.558  0.00  0.00    +0.000 HD
ATOM     10  C   UNL     1     -70.433 -57.146 -30.622  0.00  0.00    +0.000 A 
ENDROOT
BRANCH   3  11
ATOM     11  C   UNL     1     -72.308 -57.618 -26.534  0.00  0.00    +0.000 A 
ATOM     12  C   UNL     1     -71.759 -58.474 -25.581  0.00  0.00    +0.000 A 
ATOM     13  C   UNL     1     -72.275 -58.502 -24.287  0.00  0.00    +0.000 A 
ATOM     14  C   UNL     1     -73.356 -57.690 -23.919  0.00  0.00    +0.000 A 
ATOM     15  C   UNL     1     -73.882 -56.822 -24.886  0.00  0.00    +0.000 A 
ATOM     16  C   UNL     1     -73.371 -56.789 -26.183  0.00  0.00    +0.000 A 
BRANCH  14  17
ATOM     17  N   UNL     1     -73.849 -57.688 -22.593  0.00  0.00    +0.000 N 
ATOM     18  C   UNL     1     -75.249 -57.287 -22.367  0.00  0.00    +0.000 C 
ATOM     19  C   UNL     1     -75.916 -56.358 -21.517  0.00  0.00    +0.000 C 
ATOM     20  N   UNL     1     -75.091 -55.588 -20.641  0.00  0.00    +0.000 N 
ATOM     21  C   UNL     1     -77.389 -56.156 -21.544  0.00  0.00    +0.000 C 
ATOM     22  C   UNL     1     -73.682 -55.806 -20.687  0.00  0.00    +0.000 C 
ATOM     23  H   UNL     1     -75.491 -54.894 -20.027  0.00  0.00    +0.000 HD
ATOM     24  C   UNL     1     -73.218 -56.787 -21.614  0.00  0.00    +0.000 C 
ATOM     25  C   UNL     1     -72.760 -55.009 -19.836  0.00  0.00    +0.000 C 
ENDBRANCH  14  17
ENDBRANCH   3  11
BRANCH   8  26
ATOM     26  C   UNL     1     -69.379 -56.854 -32.887  0.00  0.00    +0.000 C 
ATOM     27  C   UNL     1     -68.925 -57.322 -34.273  0.00  0.00    +0.000 C 
BRANCH  27  28
ATOM     28  C   UNL     1     -68.507 -57.766 -35.561  0.00  0.00    +0.000 A 
ATOM     29  C   UNL     1     -68.037 -59.065 -35.729  0.00  0.00    +0.000 A 
ATOM     30  C   UNL     1     -67.630 -59.506 -36.991  0.00  0.00    +0.000 A 
ATOM     31  C   UNL     1     -67.705 -58.634 -38.078  0.00  0.00    +0.000 A 
ATOM     32  C   UNL     1     -68.171 -57.328 -37.914  0.00  0.00    +0.000 A 
ATOM     33  C   UNL     1     -68.574 -56.899 -36.648  0.00  0.00    +0.000 A 
BRANCH  30  34
ATOM     34  O   UNL     1     -67.159 -60.765 -37.270  0.00  0.00    +0.000 OA
ATOM     35  C   UNL     1     -67.172 -61.125 -38.623  0.00  0.00    +0.000 C 
ENDBRANCH  30  34
BRANCH  32  36
ATOM     36  O   UNL     1     -68.201 -56.561 -39.052  0.00  0.00    +0.000 OA
ATOM     37  C   UNL     1     -67.593 -55.303 -38.946  0.00  0.00    +0.000 C 
ENDBRANCH  32  36
ENDBRANCH  27  28
ENDBRANCH   8  26
TORSDOF 6
ENDMDL
MODEL 2
REMARK VINA RESULT:      -7.4      0.094      2.012
REMARK  Name = AZD4547.pdbqt.pdb
REMARK  6 active torsions:
REMARK  status: ('A' for Active; 'I' for Inactive)
REMARK    1  A    between atoms: C_3  and  C_23
REMARK    2  A    between atoms: C_8  and  C_11
REMARK    3  A    between atoms: C_12  and  C_13
REMARK    4  A    between atoms: C_15  and  O_19
REMARK    5  A    between atoms: C_17  and  O_21
REMARK    6  A    between atoms: C_26  and  N_29
REMARK                            x       y       z     vdW  Elec       q    Type
REMARK                         _______ _______ _______ _____ _____    ______ ____
ROOT
ATOM      1  O   UNL     1     -71.809 -58.631 -28.547  0.00  0.00    +0.000 OA
ATOM      2  N   UNL     1     -71.175 -56.417 -28.300  0.00  0.00    +0.000 N 
ATOM      3  C   UNL     1     -71.744 -57.600 -27.885  0.00  0.00    +0.000 C 
ATOM      4  H   UNL     1     -71.147 -55.593 -27.720  0.00  0.00    +0.000 HD
ATOM      5  C   UNL     1     -70.589 -56.226 -29.528  0.00  0.00    +0.000 A 
ATOM      6  N   UNL     1     -70.071 -55.027 -29.816  0.00  0.00    +0.000 NA
ATOM      7  N   UNL     1     -69.590 -55.178 -31.063  0.00  0.00    +0.000 N 
ATOM      8  C   UNL     1     -69.780 -56.426 -31.577  0.00  0.00    +0.000 A 
ATOM      9  H   UNL     1     -69.139 -54.386 -31.509  0.00  0.00    +0.000 HD
ATOM     10  C   UNL     1     -70.432 -57.138 -30.601  0.00  0.00    +0.000 A 
ENDROOT
BRANCH   3  11
ATOM     11  C   UNL     1     -72.321 -57.599 -26.518  0.00  0.00    +0.000 A 
ATOM     12  C   UNL     1     -71.734 -58.409 -25.547  0.00  0.00    +0.000 A 
ATOM     13  C   UNL     1     -72.249 -58.433 -24.252  0.00  0.00    +0.000 A 
ATOM     14  C   UNL     1     -73.366 -57.664 -23.902  0.00  0.00    +0.000 A 
ATOM     15  C   UNL     1     -73.932 -56.842 -24.886  0.00  0.00    +0.000 A 
ATOM     16  C   UNL     1     -73.421 -56.813 -26.184  0.00  0.00    +0.000 A 
BRANCH  14  17
ATOM     17  N   UNL     1     -73.860 -57.656 -22.576  0.00  0.00    +0.000 N 
ATOM     18  C   UNL     1     -75.258 -57.250 -22.352  0.00  0.00    +0.000 C 
ATOM     19  C   UNL     1     -75.923 -56.316 -21.504  0.00  0.00    +0.000 C 
ATOM     20  N   UNL     1     -75.096 -55.546 -20.630  0.00  0.00    +0.000 N 
ATOM     21  C   UNL     1     -77.395 -56.109 -21.532  0.00  0.00    +0.000 C 
ATOM     22  C   UNL     1     -73.688 -55.770 -20.675  0.00  0.00    +0.000 C 
ATOM     23  H   UNL     1     -75.494 -54.850 -20.019  0.00  0.00    +0.000 HD
ATOM     24  C   UNL     1     -73.227 -56.755 -21.598  0.00  0.00    +0.000 C 
ATOM     25  C   UNL     1     -72.764 -54.973 -19.826  0.00  0.00    +0.000 C 
ENDBRANCH  14  17
ENDBRANCH   3  11
BRANCH   8  26
ATOM     26  C   UNL     1     -69.369 -56.854 -32.862  0.00  0.00    +0.000 C 
ATOM     27  C   UNL     1     -68.929 -57.315 -34.255  0.00  0.00    +0.000 C 
BRANCH  27  28
ATOM     28  C   UNL     1     -68.527 -57.741 -35.554  0.00  0.00    +0.000 A 
ATOM     29  C   UNL     1     -68.626 -56.867 -36.632  0.00  0.00    +0.000 A 
ATOM     30  C   UNL     1     -68.229 -57.277 -37.907  0.00  0.00    +0.000 A 
ATOM     31  C   UNL     1     -67.728 -58.569 -38.086  0.00  0.00    +0.000 A 
ATOM     32  C   UNL     1     -67.632 -59.451 -37.008  0.00  0.00    +0.000 A 
ATOM     33  C   UNL     1     -68.032 -59.029 -35.739  0.00  0.00    +0.000 A 
BRANCH  30  34
ATOM     34  O   UNL     1     -68.277 -56.497 -39.036  0.00  0.00    +0.000 OA
ATOM     35  C   UNL     1     -67.602 -55.274 -38.950  0.00  0.00    +0.000 C 
ENDBRANCH  30  34
BRANCH  32  36
ATOM     36  O   UNL     1     -67.125 -60.693 -37.301  0.00  0.00    +0.000 OA
ATOM     37  C   UNL     1     -67.587 -61.265 -38.494  0.00  0.00    +0.000 C 
ENDBRANCH  32  36
ENDBRANCH  27  28
ENDBRANCH   8  26
TORSDOF 6
ENDMDL
MODEL 3
REMARK VINA RESULT:      -6.9      3.238     14.018
REMARK  Name = AZD4547.pdbqt.pdb
REMARK  6 active torsions:
REMARK  status: ('A' for Active; 'I' for Inactive)
REMARK    1  A    between atoms: C_3  and  C_23
REMARK    2  A    between atoms: C_8  and  C_11
REMARK    3  A    between atoms: C_12  and  C_13
REMARK    4  A    between atoms: C_15  and  O_19
REMARK    5  A    between atoms: C_17  and  O_21
REMARK    6  A    between atoms: C_26  and  N_29
REMARK                            x       y       z     vdW  Elec       q    Type
REMARK                         _______ _______ _______ _____ _____    ______ ____
ROOT
ATOM      1  O   UNL     1     -70.041 -55.979 -30.112  0.00  0.00    +0.000 OA
ATOM      2  N   UNL     1     -71.069 -58.032 -30.411  0.00  0.00    +0.000 N 
ATOM      3  C   UNL     1     -70.244 -56.991 -30.774  0.00  0.00    +0.000 C 
ATOM      4  H   UNL     1     -71.208 -58.845 -30.992  0.00  0.00    +0.000 HD
ATOM      5  C   UNL     1     -71.785 -58.084 -29.239  0.00  0.00    +0.000 A 
ATOM      6  N   UNL     1     -72.555 -59.151 -29.001  0.00  0.00    +0.000 NA
ATOM      7  N   UNL     1     -73.101 -58.888 -27.799  0.00  0.00    +0.000 N 
ATOM      8  C   UNL     1     -72.706 -57.698 -27.266  0.00  0.00    +0.000 A 
ATOM      9  H   UNL     1     -73.738 -59.567 -27.397  0.00  0.00    +0.000 HD
ATOM     10  C   UNL     1     -71.845 -57.144 -28.181  0.00  0.00    +0.000 A 
ENDROOT
BRANCH   3  11
ATOM     11  C   UNL     1     -69.558 -57.132 -32.082  0.00  0.00    +0.000 A 
ATOM     12  C   UNL     1     -70.200 -56.659 -33.225  0.00  0.00    +0.000 A 
ATOM     13  C   UNL     1     -69.587 -56.774 -34.471  0.00  0.00    +0.000 A 
ATOM     14  C   UNL     1     -68.329 -57.377 -34.606  0.00  0.00    +0.000 A 
ATOM     15  C   UNL     1     -67.690 -57.830 -33.444  0.00  0.00    +0.000 A 
ATOM     16  C   UNL     1     -68.299 -57.717 -32.194  0.00  0.00    +0.000 A 
BRANCH  14  17
ATOM     17  N   UNL     1     -67.688 -57.453 -35.865  0.00  0.00    +0.000 N 
ATOM     18  C   UNL     1     -68.313 -56.773 -37.013  0.00  0.00    +0.000 C 
ATOM     19  C   UNL     1     -68.684 -57.147 -38.338  0.00  0.00    +0.000 C 
ATOM     20  N   UNL     1     -68.414 -58.497 -38.720  0.00  0.00    +0.000 N 
ATOM     21  C   UNL     1     -69.348 -56.210 -39.283  0.00  0.00    +0.000 C 
ATOM     22  C   UNL     1     -67.805 -59.354 -37.756  0.00  0.00    +0.000 C 
ATOM     23  H   UNL     1     -68.670 -58.838 -39.634  0.00  0.00    +0.000 HD
ATOM     24  C   UNL     1     -67.515 -58.779 -36.483  0.00  0.00    +0.000 C 
ATOM     25  C   UNL     1     -67.538 -60.782 -38.070  0.00  0.00    +0.000 C 
ENDBRANCH  14  17
ENDBRANCH   3  11
BRANCH   8  26
ATOM     26  C   UNL     1     -73.125 -57.181 -26.017  0.00  0.00    +0.000 C 
ATOM     27  C   UNL     1     -73.575 -56.623 -24.663  0.00  0.00    +0.000 C 
BRANCH  27  28
ATOM     28  C   UNL     1     -73.987 -56.108 -23.400  0.00  0.00    +0.000 A 
ATOM     29  C   UNL     1     -75.174 -55.389 -23.297  0.00  0.00    +0.000 A 
ATOM     30  C   UNL     1     -75.584 -54.886 -22.060  0.00  0.00    +0.000 A 
ATOM     31  C   UNL     1     -74.795 -55.116 -20.931  0.00  0.00    +0.000 A 
ATOM     32  C   UNL     1     -73.601 -55.832 -21.030  0.00  0.00    +0.000 A 
ATOM     33  C   UNL     1     -73.202 -56.330 -22.272  0.00  0.00    +0.000 A 
BRANCH  30  34
ATOM     34  O   UNL     1     -76.737 -54.172 -21.844  0.00  0.00    +0.000 OA
ATOM     35  C   UNL     1     -76.679 -53.238 -20.802  0.00  0.00    +0.000 C 
ENDBRANCH  30  34
BRANCH  32  36
ATOM     36  O   UNL     1     -72.909 -55.997 -19.856  0.00  0.00    +0.000 OA
ATOM     37  C   UNL     1     -73.253 -55.113 -18.825  0.00  0.00    +0.000 C 
ENDBRANCH  32  36
ENDBRANCH  27  28
ENDBRANCH   8  26
TORSDOF 6
ENDMDL
MODEL 4
REMARK VINA RESULT:      -6.7      3.231     14.048
REMARK  Name = AZD4547.pdbqt.pdb
REMARK  6 active torsions:
REMARK  status: ('A' for Active; 'I' for Inactive)
REMARK    1  A    between atoms: C_3  and  C_23
REMARK    2  A    between atoms: C_8  and  C_11
REMARK    3  A    between atoms: C_12  and  C_13
REMARK    4  A    between atoms: C_15  and  O_19
REMARK    5  A    between atoms: C_17  and  O_21
REMARK    6  A    between atoms: C_26  and  N_29
REMARK                            x       y       z     vdW  Elec       q    Type
REMARK                         _______ _______ _______ _____ _____    ______ ____
ROOT
ATOM      1  O   UNL     1     -70.296 -58.409 -33.069  0.00  0.00    +0.000 OA
ATOM      2  N   UNL     1     -69.744 -56.179 -32.785  0.00  0.00    +0.000 N 
ATOM      3  C   UNL     1     -69.869 -57.346 -33.505  0.00  0.00    +0.000 C 
ATOM      4  H   UNL     1     -69.384 -55.326 -33.186  0.00  0.00    +0.000 HD
ATOM      5  C   UNL     1     -70.091 -56.041 -31.462  0.00  0.00    +0.000 A 
ATOM      6  N   UNL     1     -69.920 -54.853 -30.872  0.00  0.00    +0.000 NA
ATOM      7  N   UNL     1     -70.348 -55.060 -29.612  0.00  0.00    +0.000 N 
ATOM      8  C   UNL     1     -70.785 -56.330 -29.383  0.00  0.00    +0.000 A 
ATOM      9  H   UNL     1     -70.317 -54.286 -28.956  0.00  0.00    +0.000 HD
ATOM     10  C   UNL     1     -70.630 -57.000 -30.570  0.00  0.00    +0.000 A 
ENDROOT
BRANCH   3  11
ATOM     11  C   UNL     1     -69.440 -57.282 -34.924  0.00  0.00    +0.000 A 
ATOM     12  C   UNL     1     -68.075 -57.256 -35.207  0.00  0.00    +0.000 A 
ATOM     13  C   UNL     1     -67.636 -57.196 -36.528  0.00  0.00    +0.000 A 
ATOM     14  C   UNL     1     -68.545 -57.145 -37.593  0.00  0.00    +0.000 A 
ATOM     15  C   UNL     1     -69.913 -57.190 -37.290  0.00  0.00    +0.000 A 
ATOM     16  C   UNL     1     -70.359 -57.250 -35.971  0.00  0.00    +0.000 A 
BRANCH  14  17
ATOM     17  N   UNL     1     -68.097 -57.128 -38.935  0.00  0.00    +0.000 N 
ATOM     18  C   UNL     1     -67.474 -55.897 -39.451  0.00  0.00    +0.000 C 
ATOM     19  C   UNL     1     -67.663 -55.063 -40.592  0.00  0.00    +0.000 C 
ATOM     20  N   UNL     1     -68.692 -55.451 -41.503  0.00  0.00    +0.000 N 
ATOM     21  C   UNL     1     -66.868 -53.829 -40.827  0.00  0.00    +0.000 C 
ATOM     22  C   UNL     1     -69.441 -56.628 -41.203  0.00  0.00    +0.000 C 
ATOM     23  H   UNL     1     -68.898 -54.896 -42.320  0.00  0.00    +0.000 HD
ATOM     24  C   UNL     1     -69.090 -57.320 -40.006  0.00  0.00    +0.000 C 
ATOM     25  C   UNL     1     -70.555 -57.065 -42.084  0.00  0.00    +0.000 C 
ENDBRANCH  14  17
ENDBRANCH   3  11
BRANCH   8  26
ATOM     26  C   UNL     1     -71.288 -56.812 -28.151  0.00  0.00    +0.000 C 
ATOM     27  C   UNL     1     -71.833 -57.331 -26.816  0.00  0.00    +0.000 C 
BRANCH  27  28
ATOM     28  C   UNL     1     -72.340 -57.804 -25.571  0.00  0.00    +0.000 A 
ATOM     29  C   UNL     1     -73.384 -57.129 -24.946  0.00  0.00    +0.000 A 
ATOM     30  C   UNL     1     -73.889 -57.591 -23.728  0.00  0.00    +0.000 A 
ATOM     31  C   UNL     1     -73.339 -58.737 -23.150  0.00  0.00    +0.000 A 
ATOM     32  C   UNL     1     -72.288 -59.414 -23.771  0.00  0.00    +0.000 A 
ATOM     33  C   UNL     1     -71.792 -58.942 -24.987  0.00  0.00    +0.000 A 
BRANCH  30  34
ATOM     34  O   UNL     1     -74.919 -57.009 -23.031  0.00  0.00    +0.000 OA
ATOM     35  C   UNL     1     -74.603 -56.587 -21.734  0.00  0.00    +0.000 C 
ENDBRANCH  30  34
BRANCH  32  36
ATOM     36  O   UNL     1     -71.827 -60.527 -23.111  0.00  0.00    +0.000 OA
ATOM     37  C   UNL     1     -72.332 -61.751 -23.570  0.00  0.00    +0.000 C 
ENDBRANCH  32  36
ENDBRANCH  27  28
ENDBRANCH   8  26
TORSDOF 6
ENDMDL
MODEL 5
REMARK VINA RESULT:      -6.6     20.700     26.184
REMARK  Name = AZD4547.pdbqt.pdb
REMARK  6 active torsions:
REMARK  status: ('A' for Active; 'I' for Inactive)
REMARK    1  A    between atoms: C_3  and  C_23
REMARK    2  A    between atoms: C_8  and  C_11
REMARK    3  A    between atoms: C_12  and  C_13
REMARK    4  A    between atoms: C_15  and  O_19
REMARK    5  A    between atoms: C_17  and  O_21
REMARK    6  A    between atoms: C_26  and  N_29
REMARK                            x       y       z     vdW  Elec       q    Type
REMARK                         _______ _______ _______ _____ _____    ______ ____
ROOT
ATOM      1  O   UNL     1     -61.498 -45.138 -50.549  0.00  0.00    +0.000 OA
ATOM      2  N   UNL     1     -63.157 -46.564 -49.789  0.00  0.00    +0.000 N 
ATOM      3  C   UNL     1     -62.086 -45.711 -49.639  0.00  0.00    +0.000 C 
ATOM      4  H   UNL     1     -63.608 -47.016 -49.009  0.00  0.00    +0.000 HD
ATOM      5  C   UNL     1     -63.726 -46.890 -50.997  0.00  0.00    +0.000 A 
ATOM      6  N   UNL     1     -64.763 -47.734 -51.013  0.00  0.00    +0.000 NA
ATOM      7  N   UNL     1     -65.070 -47.836 -52.319  0.00  0.00    +0.000 N 
ATOM      8  C   UNL     1     -64.270 -47.089 -53.131  0.00  0.00    +0.000 A 
ATOM      9  H   UNL     1     -65.843 -48.435 -52.591  0.00  0.00    +0.000 HD
ATOM     10  C   UNL     1     -63.378 -46.458 -52.300  0.00  0.00    +0.000 A 
ENDROOT
BRANCH   3  11
ATOM     11  C   UNL     1     -61.625 -45.488 -48.246  0.00  0.00    +0.000 A 
ATOM     12  C   UNL     1     -60.452 -44.762 -48.041  0.00  0.00    +0.000 A 
ATOM     13  C   UNL     1     -59.989 -44.533 -46.747  0.00  0.00    +0.000 A 
ATOM     14  C   UNL     1     -60.674 -45.033 -45.632  0.00  0.00    +0.000 A 
ATOM     15  C   UNL     1     -61.861 -45.745 -45.856  0.00  0.00    +0.000 A 
ATOM     16  C   UNL     1     -62.331 -45.977 -47.149  0.00  0.00    +0.000 A 
BRANCH  14  17
ATOM     17  N   UNL     1     -60.227 -44.762 -44.318  0.00  0.00    +0.000 N 
ATOM     18  C   UNL     1     -59.260 -45.687 -43.701  0.00  0.00    +0.000 C 
ATOM     19  C   UNL     1     -59.179 -46.403 -42.471  0.00  0.00    +0.000 C 
ATOM     20  N   UNL     1     -60.266 -46.232 -41.560  0.00  0.00    +0.000 N 
ATOM     21  C   UNL     1     -58.050 -47.312 -42.141  0.00  0.00    +0.000 C 
ATOM     22  C   UNL     1     -61.335 -45.370 -41.951  0.00  0.00    +0.000 C 
ATOM     23  H   UNL     1     -60.289 -46.725 -40.681  0.00  0.00    +0.000 HD
ATOM     24  C   UNL     1     -61.219 -44.749 -43.229  0.00  0.00    +0.000 C 
ATOM     25  C   UNL     1     -62.519 -45.182 -41.072  0.00  0.00    +0.000 C 
ENDBRANCH  14  17
ENDBRANCH   3  11
BRANCH   8  26
ATOM     26  C   UNL     1     -64.377 -47.012 -54.540  0.00  0.00    +0.000 C 
ATOM     27  C   UNL     1     -64.489 -46.932 -56.066  0.00  0.00    +0.000 C 
BRANCH  27  28
ATOM     28  C   UNL     1     -64.588 -46.864 -57.486  0.00  0.00    +0.000 A 
ATOM     29  C   UNL     1     -63.503 -46.422 -58.237  0.00  0.00    +0.000 A 
ATOM     30  C   UNL     1     -63.593 -46.358 -59.629  0.00  0.00    +0.000 A 
ATOM     31  C   UNL     1     -64.778 -46.747 -60.257  0.00  0.00    +0.000 A 
ATOM     32  C   UNL     1     -65.870 -47.187 -59.508  0.00  0.00    +0.000 A 
ATOM     33  C   UNL     1     -65.768 -47.245 -58.117  0.00  0.00    +0.000 A 
BRANCH  30  34
ATOM     34  O   UNL     1     -62.585 -45.946 -60.465  0.00  0.00    +0.000 OA
ATOM     35  C   UNL     1     -61.895 -46.969 -61.125  0.00  0.00    +0.000 C 
ENDBRANCH  30  34
BRANCH  32  36
ATOM     36  O   UNL     1     -66.982 -47.543 -60.232  0.00  0.00    +0.000 OA
ATOM     37  C   UNL     1     -68.151 -46.831 -59.930  0.00  0.00    +0.000 C 
ENDBRANCH  32  36
ENDBRANCH  27  28
ENDBRANCH   8  26
TORSDOF 6
ENDMDL
MODEL 6
REMARK VINA RESULT:      -6.6      3.253     13.918
REMARK  Name = AZD4547.pdbqt.pdb
REMARK  6 active torsions:
REMARK  status: ('A' for Active; 'I' for Inactive)
REMARK    1  A    between atoms: C_3  and  C_23
REMARK    2  A    between atoms: C_8  and  C_11
REMARK    3  A    between atoms: C_12  and  C_13
REMARK    4  A    between atoms: C_15  and  O_19
REMARK    5  A    between atoms: C_17  and  O_21
REMARK    6  A    between atoms: C_26  and  N_29
REMARK                            x       y       z     vdW  Elec       q    Type
REMARK                         _______ _______ _______ _____ _____    ______ ____
ROOT
ATOM      1  O   UNL     1     -70.342 -58.439 -33.083  0.00  0.00    +0.000 OA
ATOM      2  N   UNL     1     -69.735 -56.219 -32.826  0.00  0.00    +0.000 N 
ATOM      3  C   UNL     1     -69.891 -57.391 -33.532  0.00  0.00    +0.000 C 
ATOM      4  H   UNL     1     -69.356 -55.380 -33.238  0.00  0.00    +0.000 HD
ATOM      5  C   UNL     1     -70.072 -56.059 -31.503  0.00  0.00    +0.000 A 
ATOM      6  N   UNL     1     -69.870 -54.870 -30.926  0.00  0.00    +0.000 NA
ATOM      7  N   UNL     1     -70.297 -55.052 -29.663  0.00  0.00    +0.000 N 
ATOM      8  C   UNL     1     -70.762 -56.309 -29.417  0.00  0.00    +0.000 A 
ATOM      9  H   UNL     1     -70.243 -54.273 -29.015  0.00  0.00    +0.000 HD
ATOM     10  C   UNL     1     -70.629 -56.996 -30.598  0.00  0.00    +0.000 A 
ENDROOT
BRANCH   3  11
ATOM     11  C   UNL     1     -69.468 -57.352 -34.954  0.00  0.00    +0.000 A 
ATOM     12  C   UNL     1     -68.117 -57.167 -35.242  0.00  0.00    +0.000 A 
ATOM     13  C   UNL     1     -67.683 -57.126 -36.565  0.00  0.00    +0.000 A 
ATOM     14  C   UNL     1     -68.586 -57.252 -37.629  0.00  0.00    +0.000 A 
ATOM     15  C   UNL     1     -69.938 -57.455 -37.320  0.00  0.00    +0.000 A 
ATOM     16  C   UNL     1     -70.379 -57.498 -35.998  0.00  0.00    +0.000 A 
BRANCH  14  17
ATOM     17  N   UNL     1     -68.138 -57.254 -38.971  0.00  0.00    +0.000 N 
ATOM     18  C   UNL     1     -67.493 -56.038 -39.496  0.00  0.00    +0.000 C 
ATOM     19  C   UNL     1     -67.667 -55.209 -40.643  0.00  0.00    +0.000 C 
ATOM     20  N   UNL     1     -68.703 -55.585 -41.552  0.00  0.00    +0.000 N 
ATOM     21  C   UNL     1     -66.850 -53.991 -40.888  0.00  0.00    +0.000 C 
ATOM     22  C   UNL     1     -69.473 -56.746 -41.242  0.00  0.00    +0.000 C 
ATOM     23  H   UNL     1     -68.899 -55.033 -42.373  0.00  0.00    +0.000 HD
ATOM     24  C   UNL     1     -69.134 -57.435 -40.041  0.00  0.00    +0.000 C 
ATOM     25  C   UNL     1     -70.595 -57.170 -42.120  0.00  0.00    +0.000 C 
ENDBRANCH  14  17
ENDBRANCH   3  11
BRANCH   8  26
ATOM     26  C   UNL     1     -71.270 -56.766 -28.178  0.00  0.00    +0.000 C 
ATOM     27  C   UNL     1     -71.825 -57.261 -26.838  0.00  0.00    +0.000 C 
BRANCH  27  28
ATOM     28  C   UNL     1     -72.349 -57.720 -25.595  0.00  0.00    +0.000 A 
ATOM     29  C   UNL     1     -71.802 -58.846 -24.985  0.00  0.00    +0.000 A 
ATOM     30  C   UNL     1     -72.309 -59.298 -23.764  0.00  0.00    +0.000 A 
ATOM     31  C   UNL     1     -73.364 -58.607 -23.163  0.00  0.00    +0.000 A 
ATOM     32  C   UNL     1     -73.919 -57.482 -23.774  0.00  0.00    +0.000 A 
ATOM     33  C   UNL     1     -73.403 -57.040 -24.994  0.00  0.00    +0.000 A 
BRANCH  30  34
ATOM     34  O   UNL     1     -71.842 -60.388 -23.073  0.00  0.00    +0.000 OA
ATOM     35  C   UNL     1     -72.339 -61.626 -23.496  0.00  0.00    +0.000 C 
ENDBRANCH  30  34
BRANCH  32  36
ATOM     36  O   UNL     1     -74.950 -56.884 -23.092  0.00  0.00    +0.000 OA
ATOM     37  C   UNL     1     -74.607 -55.732 -22.371  0.00  0.00    +0.000 C 
ENDBRANCH  32  36
ENDBRANCH  27  28
ENDBRANCH   8  26
TORSDOF 6
ENDMDL
MODEL 7
REMARK VINA RESULT:      -6.5     19.773     25.766
REMARK  Name = AZD4547.pdbqt.pdb
REMARK  6 active torsions:
REMARK  status: ('A' for Active; 'I' for Inactive)
REMARK    1  A    between atoms: C_3  and  C_23
REMARK    2  A    between atoms: C_8  and  C_11
REMARK    3  A    between atoms: C_12  and  C_13
REMARK    4  A    between atoms: C_15  and  O_19
REMARK    5  A    between atoms: C_17  and  O_21
REMARK    6  A    between atoms: C_26  and  N_29
REMARK                            x       y       z     vdW  Elec       q    Type
REMARK                         _______ _______ _______ _____ _____    ______ ____
ROOT
ATOM      1  O   UNL     1     -61.453 -45.169 -49.878  0.00  0.00    +0.000 OA
ATOM      2  N   UNL     1     -63.560 -45.977 -49.361  0.00  0.00    +0.000 N 
ATOM      3  C   UNL     1     -62.322 -45.454 -49.062  0.00  0.00    +0.000 C 
ATOM      4  H   UNL     1     -64.244 -46.199 -48.653  0.00  0.00    +0.000 HD
ATOM      5  C   UNL     1     -64.002 -46.251 -50.633  0.00  0.00    +0.000 A 
ATOM      6  N   UNL     1     -65.227 -46.761 -50.795  0.00  0.00    +0.000 NA
ATOM      7  N   UNL     1     -65.339 -46.905 -52.128  0.00  0.00    +0.000 N 
ATOM      8  C   UNL     1     -64.233 -46.505 -52.817  0.00  0.00    +0.000 A 
ATOM      9  H   UNL     1     -66.201 -47.283 -52.505  0.00  0.00    +0.000 HD
ATOM     10  C   UNL     1     -63.338 -46.072 -51.872  0.00  0.00    +0.000 A 
ENDROOT
BRANCH   3  11
ATOM     11  C   UNL     1     -62.043 -45.229 -47.622  0.00  0.00    +0.000 A 
ATOM     12  C   UNL     1     -60.788 -45.575 -47.125  0.00  0.00    +0.000 A 
ATOM     13  C   UNL     1     -60.491 -45.379 -45.778  0.00  0.00    +0.000 A 
ATOM     14  C   UNL     1     -61.440 -44.848 -44.895  0.00  0.00    +0.000 A 
ATOM     15  C   UNL     1     -62.691 -44.488 -45.416  0.00  0.00    +0.000 A 
ATOM     16  C   UNL     1     -62.995 -44.682 -46.764  0.00  0.00    +0.000 A 
BRANCH  14  17
ATOM     17  N   UNL     1     -61.122 -44.607 -43.538  0.00  0.00    +0.000 N 
ATOM     18  C   UNL     1     -60.065 -45.420 -42.911  0.00  0.00    +0.000 C 
ATOM     19  C   UNL     1     -59.952 -46.201 -41.724  0.00  0.00    +0.000 C 
ATOM     20  N   UNL     1     -61.107 -46.259 -40.885  0.00  0.00    +0.000 N 
ATOM     21  C   UNL     1     -58.720 -46.954 -41.370  0.00  0.00    +0.000 C 
ATOM     22  C   UNL     1     -62.268 -45.540 -41.299  0.00  0.00    +0.000 C 
ATOM     23  H   UNL     1     -61.108 -46.811 -40.041  0.00  0.00    +0.000 HD
ATOM     24  C   UNL     1     -62.170 -44.819 -42.525  0.00  0.00    +0.000 C 
ATOM     25  C   UNL     1     -63.519 -45.593 -40.498  0.00  0.00    +0.000 C 
ENDBRANCH  14  17
ENDBRANCH   3  11
BRANCH   8  26
ATOM     26  C   UNL     1     -64.087 -46.546 -54.224  0.00  0.00    +0.000 C 
ATOM     27  C   UNL     1     -63.929 -46.587 -55.748  0.00  0.00    +0.000 C 
BRANCH  27  28
ATOM     28  C   UNL     1     -63.786 -46.616 -57.165  0.00  0.00    +0.000 A 
ATOM     29  C   UNL     1     -64.914 -46.701 -57.976  0.00  0.00    +0.000 A 
ATOM     30  C   UNL     1     -64.780 -46.725 -59.366  0.00  0.00    +0.000 A 
ATOM     31  C   UNL     1     -63.504 -46.658 -59.931  0.00  0.00    +0.000 A 
ATOM     32  C   UNL     1     -62.370 -46.578 -59.123  0.00  0.00    +0.000 A 
ATOM     33  C   UNL     1     -62.517 -46.555 -57.735  0.00  0.00    +0.000 A 
BRANCH  30  34
ATOM     34  O   UNL     1     -65.822 -46.798 -60.257  0.00  0.00    +0.000 OA
ATOM     35  C   UNL     1     -67.007 -47.344 -59.751  0.00  0.00    +0.000 C 
ENDBRANCH  30  34
BRANCH  32  36
ATOM     36  O   UNL     1     -61.170 -46.518 -59.788  0.00  0.00    +0.000 OA
ATOM     37  C   UNL     1     -61.242 -46.092 -61.121  0.00  0.00    +0.000 C 
ENDBRANCH  32  36
ENDBRANCH  27  28
ENDBRANCH   8  26
TORSDOF 6
ENDMDL
MODEL 8
REMARK VINA RESULT:      -6.3      5.843     10.148
REMARK  Name = AZD4547.pdbqt.pdb
REMARK  6 active torsions:
REMARK  status: ('A' for Active; 'I' for Inactive)
REMARK    1  A    between atoms: C_3  and  C_23
REMARK    2  A    between atoms: C_8  and  C_11
REMARK    3  A    between atoms: C_12  and  C_13
REMARK    4  A    between atoms: C_15  and  O_19
REMARK    5  A    between atoms: C_17  and  O_21
REMARK    6  A    between atoms: C_26  and  N_29
REMARK                            x       y       z     vdW  Elec       q    Type
REMARK                         _______ _______ _______ _____ _____    ______ ____
ROOT
ATOM      1  O   UNL     1     -67.866 -58.138 -37.796  0.00  0.00    +0.000 OA
ATOM      2  N   UNL     1     -67.661 -55.834 -37.698  0.00  0.00    +0.000 N 
ATOM      3  C   UNL     1     -67.949 -57.078 -37.185  0.00  0.00    +0.000 C 
ATOM      4  H   UNL     1     -67.748 -54.987 -37.156  0.00  0.00    +0.000 HD
ATOM      5  C   UNL     1     -67.229 -55.604 -38.982  0.00  0.00    +0.000 A 
ATOM      6  N   UNL     1     -66.984 -54.346 -39.364  0.00  0.00    +0.000 NA
ATOM      7  N   UNL     1     -66.588 -54.474 -40.644  0.00  0.00    +0.000 N 
ATOM      8  C   UNL     1     -66.572 -55.763 -41.087  0.00  0.00    +0.000 A 
ATOM      9  H   UNL     1     -66.341 -53.637 -41.162  0.00  0.00    +0.000 HD
ATOM     10  C   UNL     1     -66.986 -56.529 -40.027  0.00  0.00    +0.000 A 
ENDROOT
BRANCH   3  11
ATOM     11  C   UNL     1     -68.399 -57.109 -35.770  0.00  0.00    +0.000 A 
ATOM     12  C   UNL     1     -67.514 -57.578 -34.801  0.00  0.00    +0.000 A 
ATOM     13  C   UNL     1     -67.901 -57.622 -33.463  0.00  0.00    +0.000 A 
ATOM     14  C   UNL     1     -69.181 -57.214 -33.065  0.00  0.00    +0.000 A 
ATOM     15  C   UNL     1     -70.051 -56.727 -34.051  0.00  0.00    +0.000 A 
ATOM     16  C   UNL     1     -69.669 -56.681 -35.392  0.00  0.00    +0.000 A 
BRANCH  14  17
ATOM     17  N   UNL     1     -69.557 -57.216 -31.701  0.00  0.00    +0.000 N 
ATOM     18  C   UNL     1     -70.751 -57.983 -31.305  0.00  0.00    +0.000 C 
ATOM     19  C   UNL     1     -71.935 -57.708 -30.561  0.00  0.00    +0.000 C 
ATOM     20  N   UNL     1     -72.070 -56.385 -30.040  0.00  0.00    +0.000 N 
ATOM     21  C   UNL     1     -73.007 -58.718 -30.351  0.00  0.00    +0.000 C 
ATOM     22  C   UNL     1     -71.021 -55.454 -30.305  0.00  0.00    +0.000 C 
ATOM     23  H   UNL     1     -72.892 -56.112 -29.524  0.00  0.00    +0.000 HD
ATOM     24  C   UNL     1     -69.919 -55.935 -31.072  0.00  0.00    +0.000 C 
ATOM     25  C   UNL     1     -71.116 -54.048 -29.832  0.00  0.00    +0.000 C 
ENDBRANCH  14  17
ENDBRANCH   3  11
BRANCH   8  26
ATOM     26  C   UNL     1     -66.194 -56.177 -42.387  0.00  0.00    +0.000 C 
ATOM     27  C   UNL     1     -65.782 -56.626 -43.793  0.00  0.00    +0.000 C 
BRANCH  27  28
ATOM     28  C   UNL     1     -65.390 -57.046 -45.097  0.00  0.00    +0.000 A 
ATOM     29  C   UNL     1     -64.040 -57.119 -45.426  0.00  0.00    +0.000 A 
ATOM     30  C   UNL     1     -63.650 -57.535 -46.701  0.00  0.00    +0.000 A 
ATOM     31  C   UNL     1     -64.627 -57.880 -47.637  0.00  0.00    +0.000 A 
ATOM     32  C   UNL     1     -65.983 -57.803 -47.313  0.00  0.00    +0.000 A 
ATOM     33  C   UNL     1     -66.360 -57.386 -46.036  0.00  0.00    +0.000 A 
BRANCH  30  34
ATOM     34  O   UNL     1     -62.350 -57.651 -47.128  0.00  0.00    +0.000 OA
ATOM     35  C   UNL     1     -62.098 -58.712 -48.005  0.00  0.00    +0.000 C 
ENDBRANCH  30  34
BRANCH  32  36
ATOM     36  O   UNL     1     -66.853 -58.167 -48.311  0.00  0.00    +0.000 OA
ATOM     37  C   UNL     1     -66.391 -57.958 -49.618  0.00  0.00    +0.000 C 
ENDBRANCH  32  36
ENDBRANCH  27  28
ENDBRANCH   8  26
TORSDOF 6
ENDMDL
MODEL 9
REMARK VINA RESULT:      -6.3      4.276     14.973
REMARK  Name = AZD4547.pdbqt.pdb
REMARK  6 active torsions:
REMARK  status: ('A' for Active; 'I' for Inactive)
REMARK    1  A    between atoms: C_3  and  C_23
REMARK    2  A    between atoms: C_8  and  C_11
REMARK    3  A    between atoms: C_12  and  C_13
REMARK    4  A    between atoms: C_15  and  O_19
REMARK    5  A    between atoms: C_17  and  O_21
REMARK    6  A    between atoms: C_26  and  N_29
REMARK                            x       y       z     vdW  Elec       q    Type
REMARK                         _______ _______ _______ _____ _____    ______ ____
ROOT
ATOM      1  O   UNL     1     -69.948 -56.536 -36.366  0.00  0.00    +0.000 OA
ATOM      2  N   UNL     1     -67.889 -57.254 -35.587  0.00  0.00    +0.000 N 
ATOM      3  C   UNL     1     -68.782 -56.865 -36.559  0.00  0.00    +0.000 C 
ATOM      4  H   UNL     1     -66.938 -57.519 -35.794  0.00  0.00    +0.000 HD
ATOM      5  C   UNL     1     -68.181 -57.323 -34.246  0.00  0.00    +0.000 A 
ATOM      6  N   UNL     1     -67.226 -57.718 -33.397  0.00  0.00    +0.000 NA
ATOM      7  N   UNL     1     -67.831 -57.675 -32.195  0.00  0.00    +0.000 N 
ATOM      8  C   UNL     1     -69.130 -57.266 -32.249  0.00  0.00    +0.000 A 
ATOM      9  H   UNL     1     -67.296 -57.937 -31.374  0.00  0.00    +0.000 HD
ATOM     10  C   UNL     1     -69.394 -57.028 -33.575  0.00  0.00    +0.000 A 
ENDROOT
BRANCH   3  11
ATOM     11  C   UNL     1     -68.264 -56.854 -37.950  0.00  0.00    +0.000 A 
ATOM     12  C   UNL     1     -67.787 -55.654 -38.474  0.00  0.00    +0.000 A 
ATOM     13  C   UNL     1     -67.293 -55.606 -39.776  0.00  0.00    +0.000 A 
ATOM     14  C   UNL     1     -67.278 -56.748 -40.588  0.00  0.00    +0.000 A 
ATOM     15  C   UNL     1     -67.744 -57.950 -40.038  0.00  0.00    +0.000 A 
ATOM     16  C   UNL     1     -68.239 -58.004 -38.736  0.00  0.00    +0.000 A 
BRANCH  14  17
ATOM     17  N   UNL     1     -66.735 -56.707 -41.894  0.00  0.00    +0.000 N 
ATOM     18  C   UNL     1     -66.839 -57.914 -42.733  0.00  0.00    +0.000 C 
ATOM     19  C   UNL     1     -65.930 -58.703 -43.497  0.00  0.00    +0.000 C 
ATOM     20  N   UNL     1     -64.564 -58.284 -43.496  0.00  0.00    +0.000 N 
ATOM     21  C   UNL     1     -66.348 -59.922 -44.238  0.00  0.00    +0.000 C 
ATOM     22  C   UNL     1     -64.223 -57.124 -42.739  0.00  0.00    +0.000 C 
ATOM     23  H   UNL     1     -63.861 -58.806 -43.996  0.00  0.00    +0.000 HD
ATOM     24  C   UNL     1     -65.288 -56.478 -42.044  0.00  0.00    +0.000 C 
ATOM     25  C   UNL     1     -62.813 -56.658 -42.656  0.00  0.00    +0.000 C 
ENDBRANCH  14  17
ENDBRANCH   3  11
BRANCH   8  26
ATOM     26  C   UNL     1     -69.991 -57.130 -31.135  0.00  0.00    +0.000 C 
ATOM     27  C   UNL     1     -70.923 -56.986 -29.927  0.00  0.00    +0.000 C 
BRANCH  27  28
ATOM     28  C   UNL     1     -71.788 -56.861 -28.802  0.00  0.00    +0.000 A 
ATOM     29  C   UNL     1     -71.545 -57.609 -27.653  0.00  0.00    +0.000 A 
ATOM     30  C   UNL     1     -72.387 -57.487 -26.545  0.00  0.00    +0.000 A 
ATOM     31  C   UNL     1     -73.469 -56.606 -26.601  0.00  0.00    +0.000 A 
ATOM     32  C   UNL     1     -73.719 -55.857 -27.752  0.00  0.00    +0.000 A 
ATOM     33  C   UNL     1     -72.871 -55.988 -28.853  0.00  0.00    +0.000 A 
BRANCH  30  34
ATOM     34  O   UNL     1     -72.236 -58.169 -25.363  0.00  0.00    +0.000 OA
ATOM     35  C   UNL     1     -73.356 -58.895 -24.941  0.00  0.00    +0.000 C 
ENDBRANCH  30  34
BRANCH  32  36
ATOM     36  O   UNL     1     -74.809 -55.024 -27.693  0.00  0.00    +0.000 OA
ATOM     37  C   UNL     1     -75.005 -54.376 -26.466  0.00  0.00    +0.000 C 
ENDBRANCH  32  36
ENDBRANCH  27  28
ENDBRANCH   8  26
TORSDOF 6
ENDMDL
