MODEL 1
REMARK VINA RESULT:      -6.0      0.000      0.000
REMARK  Name = Belinostat.pdbqt.pdb
REMARK  6 active torsions:
REMARK  status: ('A' for Active; 'I' for Inactive)
REMARK    1  A    between atoms: C_1  and  S_7
REMARK    2  A    between atoms: C_3  and  C_18
REMARK    3  A    between atoms: S_7  and  N_10
REMARK    4  A    between atoms: N_10  and  C_12
REMARK    5  A    between atoms: C_19  and  C_20
REMARK    6  A    between atoms: N_22  and  O_24
REMARK                            x       y       z     vdW  Elec       q    Type
REMARK                         _______ _______ _______ _____ _____    ______ ____
ROOT
ATOM      1  C   UNL     1     -68.212 -58.923 -34.759  0.00  0.00    +0.000 A 
ATOM      2  C   UNL     1     -68.179 -57.777 -35.545  0.00  0.00    +0.000 A 
ATOM      3  C   UNL     1     -67.920 -57.900 -36.907  0.00  0.00    +0.000 A 
ATOM      4  C   UNL     1     -68.021 -60.187 -35.307  0.00  0.00    +0.000 A 
ATOM      5  C   UNL     1     -67.711 -59.158 -37.470  0.00  0.00    +0.000 A 
ATOM      6  C   UNL     1     -67.764 -60.301 -36.671  0.00  0.00    +0.000 A 
ENDROOT
BRANCH   1   7
ATOM      7  S   UNL     1     -68.578 -58.783 -33.047  0.00  0.00    +0.000 S 
ATOM      8  O   UNL     1     -67.409 -58.219 -32.408  0.00  0.00    +0.000 OA
ATOM      9  O   UNL     1     -69.142 -60.039 -32.602  0.00  0.00    +0.000 OA
BRANCH   7  10
ATOM     10  N   UNL     1     -69.762 -57.599 -32.999  0.00  0.00    +0.000 N 
ATOM     11  H   UNL     1     -70.369 -57.575 -33.817  0.00  0.00    +0.000 HD
BRANCH  10  12
ATOM     12  C   UNL     1     -70.177 -56.958 -31.798  0.00  0.00    +0.000 A 
ATOM     13  C   UNL     1     -70.822 -57.635 -30.765  0.00  0.00    +0.000 A 
ATOM     14  C   UNL     1     -71.133 -56.978 -29.577  0.00  0.00    +0.000 A 
ATOM     15  C   UNL     1     -70.776 -55.644 -29.407  0.00  0.00    +0.000 A 
ATOM     16  C   UNL     1     -70.099 -54.971 -30.421  0.00  0.00    +0.000 A 
ATOM     17  C   UNL     1     -69.790 -55.631 -31.607  0.00  0.00    +0.000 A 
ENDBRANCH  10  12
ENDBRANCH   7  10
ENDBRANCH   1   7
BRANCH   3  18
ATOM     18  C   UNL     1     -67.868 -56.734 -37.727  0.00  0.00    +0.000 C 
ATOM     19  C   UNL     1     -67.821 -55.753 -38.418  0.00  0.00    +0.000 C 
BRANCH  19  20
ATOM     20  C   UNL     1     -67.765 -54.575 -39.249  0.00  0.00    +0.000 C 
ATOM     21  O   UNL     1     -68.708 -53.794 -39.285  0.00  0.00    +0.000 OA
ATOM     22  N   UNL     1     -66.611 -54.401 -39.960  0.00  0.00    +0.000 N 
ATOM     23  H   UNL     1     -65.800 -55.005 -39.898  0.00  0.00    +0.000 HD
BRANCH  22  24
ATOM     24  O   UNL     1     -66.500 -53.233 -40.748  0.00  0.00    +0.000 OA
ATOM     25  H   UNL     1     -67.025 -52.578 -40.238  0.00  0.00    +0.000 HD
ENDBRANCH  22  24
ENDBRANCH  19  20
ENDBRANCH   3  18
TORSDOF 6
ENDMDL
MODEL 2
REMARK VINA RESULT:      -5.9      7.840     11.342
REMARK  Name = Belinostat.pdbqt.pdb
REMARK  6 active torsions:
REMARK  status: ('A' for Active; 'I' for Inactive)
REMARK    1  A    between atoms: C_1  and  S_7
REMARK    2  A    between atoms: C_3  and  C_18
REMARK    3  A    between atoms: S_7  and  N_10
REMARK    4  A    between atoms: N_10  and  C_12
REMARK    5  A    between atoms: C_19  and  C_20
REMARK    6  A    between atoms: N_22  and  O_24
REMARK                            x       y       z     vdW  Elec       q    Type
REMARK                         _______ _______ _______ _____ _____    ______ ____
ROOT
ATOM      1  C   UNL     1     -73.523 -57.304 -24.413  0.00  0.00    +0.000 A 
ATOM      2  C   UNL     1     -73.131 -56.993 -25.709  0.00  0.00    +0.000 A 
ATOM      3  C   UNL     1     -72.024 -57.637 -26.253  0.00  0.00    +0.000 A 
ATOM      4  C   UNL     1     -72.853 -58.264 -23.661  0.00  0.00    +0.000 A 
ATOM      5  C   UNL     1     -71.332 -58.591 -25.507  0.00  0.00    +0.000 A 
ATOM      6  C   UNL     1     -71.748 -58.905 -24.213  0.00  0.00    +0.000 A 
ENDROOT
BRANCH   1   7
ATOM      7  S   UNL     1     -74.943 -56.527 -23.731  0.00  0.00    +0.000 S 
ATOM      8  O   UNL     1     -76.100 -57.149 -24.339  0.00  0.00    +0.000 OA
ATOM      9  O   UNL     1     -74.746 -55.095 -23.791  0.00  0.00    +0.000 OA
BRANCH   7  10
ATOM     10  N   UNL     1     -74.925 -57.020 -22.131  0.00  0.00    +0.000 N 
ATOM     11  H   UNL     1     -74.908 -58.031 -22.000  0.00  0.00    +0.000 HD
BRANCH  10  12
ATOM     12  C   UNL     1     -74.551 -56.167 -21.054  0.00  0.00    +0.000 A 
ATOM     13  C   UNL     1     -75.478 -55.607 -20.178  0.00  0.00    +0.000 A 
ATOM     14  C   UNL     1     -75.051 -54.846 -19.091  0.00  0.00    +0.000 A 
ATOM     15  C   UNL     1     -73.691 -54.665 -18.862  0.00  0.00    +0.000 A 
ATOM     16  C   UNL     1     -72.758 -55.253 -19.713  0.00  0.00    +0.000 A 
ATOM     17  C   UNL     1     -73.188 -56.012 -20.798  0.00  0.00    +0.000 A 
ENDBRANCH  10  12
ENDBRANCH   7  10
ENDBRANCH   1   7
BRANCH   3  18
ATOM     18  C   UNL     1     -71.598 -57.320 -27.577  0.00  0.00    +0.000 C 
ATOM     19  C   UNL     1     -71.243 -57.053 -28.692  0.00  0.00    +0.000 C 
BRANCH  19  20
ATOM     20  C   UNL     1     -70.816 -56.732 -30.032  0.00  0.00    +0.000 C 
ATOM     21  O   UNL     1     -71.253 -57.358 -30.990  0.00  0.00    +0.000 OA
ATOM     22  N   UNL     1     -69.925 -55.702 -30.145  0.00  0.00    +0.000 N 
ATOM     23  H   UNL     1     -69.599 -55.137 -29.369  0.00  0.00    +0.000 HD
BRANCH  22  24
ATOM     24  O   UNL     1     -69.521 -55.327 -31.445  0.00  0.00    +0.000 OA
ATOM     25  H   UNL     1     -69.190 -54.412 -31.313  0.00  0.00    +0.000 HD
ENDBRANCH  22  24
ENDBRANCH  19  20
ENDBRANCH   3  18
TORSDOF 6
ENDMDL
MODEL 3
REMARK VINA RESULT:      -5.8      7.596     12.807
REMARK  Name = Belinostat.pdbqt.pdb
REMARK  6 active torsions:
REMARK  status: ('A' for Active; 'I' for Inactive)
REMARK    1  A    between atoms: C_1  and  S_7
REMARK    2  A    between atoms: C_3  and  C_18
REMARK    3  A    between atoms: S_7  and  N_10
REMARK    4  A    between atoms: N_10  and  C_12
REMARK    5  A    between atoms: C_19  and  C_20
REMARK    6  A    between atoms: N_22  and  O_24
REMARK                            x       y       z     vdW  Elec       q    Type
REMARK                         _______ _______ _______ _____ _____    ______ ____
ROOT
ATOM      1  C   UNL     1     -72.819 -58.079 -25.806  0.00  0.00    +0.000 A 
ATOM      2  C   UNL     1     -73.030 -57.281 -24.688  0.00  0.00    +0.000 A 
ATOM      3  C   UNL     1     -72.892 -57.841 -23.422  0.00  0.00    +0.000 A 
ATOM      4  C   UNL     1     -72.445 -59.414 -25.686  0.00  0.00    +0.000 A 
ATOM      5  C   UNL     1     -72.533 -59.182 -23.284  0.00  0.00    +0.000 A 
ATOM      6  C   UNL     1     -72.308 -59.967 -24.416  0.00  0.00    +0.000 A 
ENDROOT
BRANCH   1   7
ATOM      7  S   UNL     1     -72.951 -57.372 -27.408  0.00  0.00    +0.000 S 
ATOM      8  O   UNL     1     -73.506 -56.046 -27.241  0.00  0.00    +0.000 OA
ATOM      9  O   UNL     1     -73.578 -58.342 -28.280  0.00  0.00    +0.000 OA
BRANCH   7  10
ATOM     10  N   UNL     1     -71.355 -57.163 -27.872  0.00  0.00    +0.000 N 
ATOM     11  H   UNL     1     -70.694 -57.781 -27.403  0.00  0.00    +0.000 HD
BRANCH  10  12
ATOM     12  C   UNL     1     -70.971 -56.511 -29.077  0.00  0.00    +0.000 A 
ATOM     13  C   UNL     1     -70.530 -55.190 -29.113  0.00  0.00    +0.000 A 
ATOM     14  C   UNL     1     -70.088 -54.625 -30.307  0.00  0.00    +0.000 A 
ATOM     15  C   UNL     1     -70.060 -55.391 -31.468  0.00  0.00    +0.000 A 
ATOM     16  C   UNL     1     -70.465 -56.722 -31.433  0.00  0.00    +0.000 A 
ATOM     17  C   UNL     1     -70.907 -57.282 -30.238  0.00  0.00    +0.000 A 
ENDBRANCH  10  12
ENDBRANCH   7  10
ENDBRANCH   1   7
BRANCH   3  18
ATOM     18  C   UNL     1     -73.119 -57.041 -22.263  0.00  0.00    +0.000 C 
ATOM     19  C   UNL     1     -73.312 -56.366 -21.289  0.00  0.00    +0.000 C 
BRANCH  19  20
ATOM     20  C   UNL     1     -73.545 -55.555 -20.120  0.00  0.00    +0.000 C 
ATOM     21  O   UNL     1     -72.710 -55.501 -19.224  0.00  0.00    +0.000 OA
ATOM     22  N   UNL     1     -74.726 -54.867 -20.094  0.00  0.00    +0.000 N 
ATOM     23  H   UNL     1     -75.400 -54.855 -20.851  0.00  0.00    +0.000 HD
BRANCH  22  24
ATOM     24  O   UNL     1     -74.967 -54.024 -18.987  0.00  0.00    +0.000 OA
ATOM     25  H   UNL     1     -74.517 -53.191 -19.248  0.00  0.00    +0.000 HD
ENDBRANCH  22  24
ENDBRANCH  19  20
ENDBRANCH   3  18
TORSDOF 6
ENDMDL
MODEL 4
REMARK VINA RESULT:      -5.8     37.815     42.443
REMARK  Name = Belinostat.pdbqt.pdb
REMARK  6 active torsions:
REMARK  status: ('A' for Active; 'I' for Inactive)
REMARK    1  A    between atoms: C_1  and  S_7
REMARK    2  A    between atoms: C_3  and  C_18
REMARK    3  A    between atoms: S_7  and  N_10
REMARK    4  A    between atoms: N_10  and  C_12
REMARK    5  A    between atoms: C_19  and  C_20
REMARK    6  A    between atoms: N_22  and  O_24
REMARK                            x       y       z     vdW  Elec       q    Type
REMARK                         _______ _______ _______ _____ _____    ______ ____
ROOT
ATOM      1  C   UNL     1     -65.441 -61.058 -77.341  0.00  0.00    +0.000 A 
ATOM      2  C   UNL     1     -65.187 -61.161 -75.978  0.00  0.00    +0.000 A 
ATOM      3  C   UNL     1     -66.062 -60.558 -75.081  0.00  0.00    +0.000 A 
ATOM      4  C   UNL     1     -66.564 -60.392 -77.823  0.00  0.00    +0.000 A 
ATOM      5  C   UNL     1     -67.184 -59.873 -75.547  0.00  0.00    +0.000 A 
ATOM      6  C   UNL     1     -67.435 -59.792 -76.917  0.00  0.00    +0.000 A 
ENDROOT
BRANCH   1   7
ATOM      7  S   UNL     1     -64.366 -61.850 -78.481  0.00  0.00    +0.000 S 
ATOM      8  O   UNL     1     -64.790 -61.456 -79.808  0.00  0.00    +0.000 OA
ATOM      9  O   UNL     1     -64.263 -63.245 -78.112  0.00  0.00    +0.000 OA
BRANCH   7  10
ATOM     10  N   UNL     1     -62.893 -61.098 -78.213  0.00  0.00    +0.000 N 
ATOM     11  H   UNL     1     -62.181 -61.699 -77.800  0.00  0.00    +0.000 HD
BRANCH  10  12
ATOM     12  C   UNL     1     -62.504 -59.889 -78.855  0.00  0.00    +0.000 A 
ATOM     13  C   UNL     1     -61.665 -59.862 -79.967  0.00  0.00    +0.000 A 
ATOM     14  C   UNL     1     -61.381 -58.658 -80.608  0.00  0.00    +0.000 A 
ATOM     15  C   UNL     1     -61.960 -57.477 -80.154  0.00  0.00    +0.000 A 
ATOM     16  C   UNL     1     -62.828 -57.502 -79.066  0.00  0.00    +0.000 A 
ATOM     17  C   UNL     1     -63.108 -58.707 -78.428  0.00  0.00    +0.000 A 
ENDBRANCH  10  12
ENDBRANCH   7  10
ENDBRANCH   1   7
BRANCH   3  18
ATOM     18  C   UNL     1     -65.809 -60.641 -73.679  0.00  0.00    +0.000 C 
ATOM     19  C   UNL     1     -65.597 -60.709 -72.499  0.00  0.00    +0.000 C 
BRANCH  19  20
ATOM     20  C   UNL     1     -65.342 -60.789 -71.082  0.00  0.00    +0.000 C 
ATOM     21  O   UNL     1     -64.336 -61.347 -70.662  0.00  0.00    +0.000 OA
ATOM     22  N   UNL     1     -66.276 -60.204 -70.273  0.00  0.00    +0.000 N 
ATOM     23  H   UNL     1     -67.083 -59.689 -70.606  0.00  0.00    +0.000 HD
BRANCH  22  24
ATOM     24  O   UNL     1     -66.036 -60.220 -68.881  0.00  0.00    +0.000 OA
ATOM     25  H   UNL     1     -65.765 -61.150 -68.720  0.00  0.00    +0.000 HD
ENDBRANCH  22  24
ENDBRANCH  19  20
ENDBRANCH   3  18
TORSDOF 6
ENDMDL
MODEL 5
REMARK VINA RESULT:      -5.7      4.261      7.136
REMARK  Name = Belinostat.pdbqt.pdb
REMARK  6 active torsions:
REMARK  status: ('A' for Active; 'I' for Inactive)
REMARK    1  A    between atoms: C_1  and  S_7
REMARK    2  A    between atoms: C_3  and  C_18
REMARK    3  A    between atoms: S_7  and  N_10
REMARK    4  A    between atoms: N_10  and  C_12
REMARK    5  A    between atoms: C_19  and  C_20
REMARK    6  A    between atoms: N_22  and  O_24
REMARK                            x       y       z     vdW  Elec       q    Type
REMARK                         _______ _______ _______ _____ _____    ______ ____
ROOT
ATOM      1  C   UNL     1     -71.511 -56.589 -29.370  0.00  0.00    +0.000 A 
ATOM      2  C   UNL     1     -70.674 -57.368 -30.161  0.00  0.00    +0.000 A 
ATOM      3  C   UNL     1     -69.855 -56.744 -31.095  0.00  0.00    +0.000 A 
ATOM      4  C   UNL     1     -71.524 -55.202 -29.472  0.00  0.00    +0.000 A 
ATOM      5  C   UNL     1     -69.866 -55.355 -31.222  0.00  0.00    +0.000 A 
ATOM      6  C   UNL     1     -70.700 -54.585 -30.409  0.00  0.00    +0.000 A 
ENDROOT
BRANCH   1   7
ATOM      7  S   UNL     1     -72.520 -57.363 -28.159  0.00  0.00    +0.000 S 
ATOM      8  O   UNL     1     -73.146 -58.503 -28.794  0.00  0.00    +0.000 OA
ATOM      9  O   UNL     1     -73.311 -56.341 -27.508  0.00  0.00    +0.000 OA
BRANCH   7  10
ATOM     10  N   UNL     1     -71.411 -57.981 -27.066  0.00  0.00    +0.000 N 
ATOM     11  H   UNL     1     -70.527 -57.474 -27.029  0.00  0.00    +0.000 HD
BRANCH  10  12
ATOM     12  C   UNL     1     -71.768 -58.846 -25.994  0.00  0.00    +0.000 A 
ATOM     13  C   UNL     1     -71.842 -60.231 -26.135  0.00  0.00    +0.000 A 
ATOM     14  C   UNL     1     -72.116 -61.038 -25.033  0.00  0.00    +0.000 A 
ATOM     15  C   UNL     1     -72.291 -60.464 -23.778  0.00  0.00    +0.000 A 
ATOM     16  C   UNL     1     -72.182 -59.084 -23.623  0.00  0.00    +0.000 A 
ATOM     17  C   UNL     1     -71.909 -58.281 -24.727  0.00  0.00    +0.000 A 
ENDBRANCH  10  12
ENDBRANCH   7  10
ENDBRANCH   1   7
BRANCH   3  18
ATOM     18  C   UNL     1     -69.000 -57.528 -31.925  0.00  0.00    +0.000 C 
ATOM     19  C   UNL     1     -68.283 -58.190 -32.625  0.00  0.00    +0.000 C 
BRANCH  19  20
ATOM     20  C   UNL     1     -67.422 -58.986 -33.465  0.00  0.00    +0.000 C 
ATOM     21  O   UNL     1     -66.866 -59.983 -33.019  0.00  0.00    +0.000 OA
ATOM     22  N   UNL     1     -67.288 -58.560 -34.757  0.00  0.00    +0.000 N 
ATOM     23  H   UNL     1     -67.785 -57.773 -35.156  0.00  0.00    +0.000 HD
BRANCH  22  24
ATOM     24  O   UNL     1     -66.491 -59.341 -35.622  0.00  0.00    +0.000 OA
ATOM     25  H   UNL     1     -65.659 -59.448 -35.112  0.00  0.00    +0.000 HD
ENDBRANCH  22  24
ENDBRANCH  19  20
ENDBRANCH   3  18
TORSDOF 6
ENDMDL
MODEL 6
REMARK VINA RESULT:      -5.5     23.347     27.625
REMARK  Name = Belinostat.pdbqt.pdb
REMARK  6 active torsions:
REMARK  status: ('A' for Active; 'I' for Inactive)
REMARK    1  A    between atoms: C_1  and  S_7
REMARK    2  A    between atoms: C_3  and  C_18
REMARK    3  A    between atoms: S_7  and  N_10
REMARK    4  A    between atoms: N_10  and  C_12
REMARK    5  A    between atoms: C_19  and  C_20
REMARK    6  A    between atoms: N_22  and  O_24
REMARK                            x       y       z     vdW  Elec       q    Type
REMARK                         _______ _______ _______ _____ _____    ______ ____
ROOT
ATOM      1  C   UNL     1     -58.426 -56.432 -60.301  0.00  0.00    +0.000 A 
ATOM      2  C   UNL     1     -57.577 -55.698 -61.122  0.00  0.00    +0.000 A 
ATOM      3  C   UNL     1     -56.333 -56.226 -61.451  0.00  0.00    +0.000 A 
ATOM      4  C   UNL     1     -58.070 -57.691 -59.828  0.00  0.00    +0.000 A 
ATOM      5  C   UNL     1     -55.954 -57.480 -60.973  0.00  0.00    +0.000 A 
ATOM      6  C   UNL     1     -56.823 -58.212 -60.163  0.00  0.00    +0.000 A 
ENDROOT
BRANCH   1   7
ATOM      7  S   UNL     1     -60.015 -55.794 -59.913  0.00  0.00    +0.000 S 
ATOM      8  O   UNL     1     -60.882 -56.928 -59.679  0.00  0.00    +0.000 OA
ATOM      9  O   UNL     1     -60.350 -54.786 -60.895  0.00  0.00    +0.000 OA
BRANCH   7  10
ATOM     10  N   UNL     1     -59.785 -55.059 -58.425  0.00  0.00    +0.000 N 
ATOM     11  H   UNL     1     -59.686 -54.045 -58.466  0.00  0.00    +0.000 HD
BRANCH  10  12
ATOM     12  C   UNL     1     -60.106 -55.683 -57.187  0.00  0.00    +0.000 A 
ATOM     13  C   UNL     1     -61.406 -55.747 -56.689  0.00  0.00    +0.000 A 
ATOM     14  C   UNL     1     -61.677 -56.441 -55.512  0.00  0.00    +0.000 A 
ATOM     15  C   UNL     1     -60.650 -57.100 -54.842  0.00  0.00    +0.000 A 
ATOM     16  C   UNL     1     -59.356 -57.071 -55.354  0.00  0.00    +0.000 A 
ATOM     17  C   UNL     1     -59.089 -56.375 -56.530  0.00  0.00    +0.000 A 
ENDBRANCH  10  12
ENDBRANCH   7  10
ENDBRANCH   1   7
BRANCH   3  18
ATOM     18  C   UNL     1     -55.443 -55.481 -62.281  0.00  0.00    +0.000 C 
ATOM     19  C   UNL     1     -54.697 -54.853 -62.982  0.00  0.00    +0.000 C 
BRANCH  19  20
ATOM     20  C   UNL     1     -53.801 -54.100 -63.824  0.00  0.00    +0.000 C 
ATOM     21  O   UNL     1     -53.188 -54.652 -64.730  0.00  0.00    +0.000 OA
ATOM     22  N   UNL     1     -53.701 -52.765 -63.547  0.00  0.00    +0.000 N 
ATOM     23  H   UNL     1     -54.244 -52.283 -62.840  0.00  0.00    +0.000 HD
BRANCH  22  24
ATOM     24  O   UNL     1     -52.870 -51.985 -64.381  0.00  0.00    +0.000 OA
ATOM     25  H   UNL     1     -52.485 -52.654 -64.988  0.00  0.00    +0.000 HD
ENDBRANCH  22  24
ENDBRANCH  19  20
ENDBRANCH   3  18
TORSDOF 6
ENDMDL
MODEL 7
REMARK VINA RESULT:      -5.4     10.922     12.882
REMARK  Name = Belinostat.pdbqt.pdb
REMARK  6 active torsions:
REMARK  status: ('A' for Active; 'I' for Inactive)
REMARK    1  A    between atoms: C_1  and  S_7
REMARK    2  A    between atoms: C_3  and  C_18
REMARK    3  A    between atoms: S_7  and  N_10
REMARK    4  A    between atoms: N_10  and  C_12
REMARK    5  A    between atoms: C_19  and  C_20
REMARK    6  A    between atoms: N_22  and  O_24
REMARK                            x       y       z     vdW  Elec       q    Type
REMARK                         _______ _______ _______ _____ _____    ______ ____
ROOT
ATOM      1  C   UNL     1     -61.117 -51.096 -25.621  0.00  0.00    +0.000 A 
ATOM      2  C   UNL     1     -62.338 -50.786 -26.208  0.00  0.00    +0.000 A 
ATOM      3  C   UNL     1     -62.350 -50.110 -27.424  0.00  0.00    +0.000 A 
ATOM      4  C   UNL     1     -59.912 -50.773 -26.235  0.00  0.00    +0.000 A 
ATOM      5  C   UNL     1     -61.151 -49.765 -28.047  0.00  0.00    +0.000 A 
ATOM      6  C   UNL     1     -59.933 -50.098 -27.453  0.00  0.00    +0.000 A 
ENDROOT
BRANCH   1   7
ATOM      7  S   UNL     1     -61.090 -51.984 -24.106  0.00  0.00    +0.000 S 
ATOM      8  O   UNL     1     -62.038 -51.343 -23.221  0.00  0.00    +0.000 OA
ATOM      9  O   UNL     1     -59.709 -52.169 -23.715  0.00  0.00    +0.000 OA
BRANCH   7  10
ATOM     10  N   UNL     1     -61.751 -53.468 -24.514  0.00  0.00    +0.000 N 
ATOM     11  H   UNL     1     -62.595 -53.412 -25.082  0.00  0.00    +0.000 HD
BRANCH  10  12
ATOM     12  C   UNL     1     -61.024 -54.690 -24.456  0.00  0.00    +0.000 A 
ATOM     13  C   UNL     1     -61.046 -55.530 -23.345  0.00  0.00    +0.000 A 
ATOM     14  C   UNL     1     -60.383 -56.754 -23.371  0.00  0.00    +0.000 A 
ATOM     15  C   UNL     1     -59.715 -57.157 -24.524  0.00  0.00    +0.000 A 
ATOM     16  C   UNL     1     -59.718 -56.339 -25.650  0.00  0.00    +0.000 A 
ATOM     17  C   UNL     1     -60.382 -55.116 -25.619  0.00  0.00    +0.000 A 
ENDBRANCH  10  12
ENDBRANCH   7  10
ENDBRANCH   1   7
BRANCH   3  18
ATOM     18  C   UNL     1     -63.594 -49.771 -28.035  0.00  0.00    +0.000 C 
ATOM     19  C   UNL     1     -64.643 -49.486 -28.546  0.00  0.00    +0.000 C 
BRANCH  19  20
ATOM     20  C   UNL     1     -65.902 -49.144 -29.160  0.00  0.00    +0.000 C 
ATOM     21  O   UNL     1     -66.766 -48.556 -28.520  0.00  0.00    +0.000 OA
ATOM     22  N   UNL     1     -66.047 -49.507 -30.469  0.00  0.00    +0.000 N 
ATOM     23  H   UNL     1     -65.322 -49.941 -31.029  0.00  0.00    +0.000 HD
BRANCH  22  24
ATOM     24  O   UNL     1     -67.249 -49.146 -31.118  0.00  0.00    +0.000 OA
ATOM     25  H   UNL     1     -66.937 -48.849 -32.000  0.00  0.00    +0.000 HD
ENDBRANCH  22  24
ENDBRANCH  19  20
ENDBRANCH   3  18
TORSDOF 6
ENDMDL
MODEL 8
REMARK VINA RESULT:      -5.4     35.741     37.576
REMARK  Name = Belinostat.pdbqt.pdb
REMARK  6 active torsions:
REMARK  status: ('A' for Active; 'I' for Inactive)
REMARK    1  A    between atoms: C_1  and  S_7
REMARK    2  A    between atoms: C_3  and  C_18
REMARK    3  A    between atoms: S_7  and  N_10
REMARK    4  A    between atoms: N_10  and  C_12
REMARK    5  A    between atoms: C_19  and  C_20
REMARK    6  A    between atoms: N_22  and  O_24
REMARK                            x       y       z     vdW  Elec       q    Type
REMARK                         _______ _______ _______ _____ _____    ______ ____
ROOT
ATOM      1  C   UNL     1     -65.601 -62.813 -70.126  0.00  0.00    +0.000 A 
ATOM      2  C   UNL     1     -64.216 -62.893 -70.213  0.00  0.00    +0.000 A 
ATOM      3  C   UNL     1     -63.636 -64.063 -70.693  0.00  0.00    +0.000 A 
ATOM      4  C   UNL     1     -66.417 -63.863 -70.535  0.00  0.00    +0.000 A 
ATOM      5  C   UNL     1     -64.439 -65.131 -71.093  0.00  0.00    +0.000 A 
ATOM      6  C   UNL     1     -65.829 -65.030 -71.015  0.00  0.00    +0.000 A 
ENDROOT
BRANCH   1   7
ATOM      7  S   UNL     1     -66.345 -61.327 -69.560  0.00  0.00    +0.000 S 
ATOM      8  O   UNL     1     -65.727 -60.999 -68.293  0.00  0.00    +0.000 OA
ATOM      9  O   UNL     1     -67.781 -61.466 -69.678  0.00  0.00    +0.000 OA
BRANCH   7  10
ATOM     10  N   UNL     1     -65.810 -60.182 -70.659  0.00  0.00    +0.000 N 
ATOM     11  H   UNL     1     -64.941 -59.718 -70.397  0.00  0.00    +0.000 HD
BRANCH  10  12
ATOM     12  C   UNL     1     -66.254 -60.129 -72.010  0.00  0.00    +0.000 A 
ATOM     13  C   UNL     1     -67.276 -59.283 -72.437  0.00  0.00    +0.000 A 
ATOM     14  C   UNL     1     -67.615 -59.211 -73.786  0.00  0.00    +0.000 A 
ATOM     15  C   UNL     1     -66.912 -59.966 -74.720  0.00  0.00    +0.000 A 
ATOM     16  C   UNL     1     -65.866 -60.785 -74.306  0.00  0.00    +0.000 A 
ATOM     17  C   UNL     1     -65.530 -60.855 -72.956  0.00  0.00    +0.000 A 
ENDBRANCH  10  12
ENDBRANCH   7  10
ENDBRANCH   1   7
BRANCH   3  18
ATOM     18  C   UNL     1     -62.216 -64.168 -70.776  0.00  0.00    +0.000 C 
ATOM     19  C   UNL     1     -61.020 -64.254 -70.845  0.00  0.00    +0.000 C 
BRANCH  19  20
ATOM     20  C   UNL     1     -59.584 -64.356 -70.927  0.00  0.00    +0.000 C 
ATOM     21  O   UNL     1     -58.899 -64.317 -69.911  0.00  0.00    +0.000 OA
ATOM     22  N   UNL     1     -59.066 -64.506 -72.183  0.00  0.00    +0.000 N 
ATOM     23  H   UNL     1     -59.621 -64.598 -73.025  0.00  0.00    +0.000 HD
BRANCH  22  24
ATOM     24  O   UNL     1     -57.667 -64.658 -72.298  0.00  0.00    +0.000 OA
ATOM     25  H   UNL     1     -57.559 -64.969 -73.223  0.00  0.00    +0.000 HD
ENDBRANCH  22  24
ENDBRANCH  19  20
ENDBRANCH   3  18
TORSDOF 6
ENDMDL
MODEL 9
REMARK VINA RESULT:      -5.3     36.295     38.774
REMARK  Name = Belinostat.pdbqt.pdb
REMARK  6 active torsions:
REMARK  status: ('A' for Active; 'I' for Inactive)
REMARK    1  A    between atoms: C_1  and  S_7
REMARK    2  A    between atoms: C_3  and  C_18
REMARK    3  A    between atoms: S_7  and  N_10
REMARK    4  A    between atoms: N_10  and  C_12
REMARK    5  A    between atoms: C_19  and  C_20
REMARK    6  A    between atoms: N_22  and  O_24
REMARK                            x       y       z     vdW  Elec       q    Type
REMARK                         _______ _______ _______ _____ _____    ______ ____
ROOT
ATOM      1  C   UNL     1     -61.027 -64.958 -71.088  0.00  0.00    +0.000 A 
ATOM      2  C   UNL     1     -61.846 -63.861 -70.849  0.00  0.00    +0.000 A 
ATOM      3  C   UNL     1     -63.172 -63.905 -71.265  0.00  0.00    +0.000 A 
ATOM      4  C   UNL     1     -61.512 -66.107 -71.705  0.00  0.00    +0.000 A 
ATOM      5  C   UNL     1     -63.671 -65.042 -71.900  0.00  0.00    +0.000 A 
ATOM      6  C   UNL     1     -62.841 -66.143 -72.118  0.00  0.00    +0.000 A 
ENDROOT
BRANCH   1   7
ATOM      7  S   UNL     1     -59.362 -64.930 -70.530  0.00  0.00    +0.000 S 
ATOM      8  O   UNL     1     -59.069 -66.245 -70.002  0.00  0.00    +0.000 OA
ATOM      9  O   UNL     1     -59.175 -63.742 -69.725  0.00  0.00    +0.000 OA
BRANCH   7  10
ATOM     10  N   UNL     1     -58.481 -64.780 -71.946  0.00  0.00    +0.000 N 
ATOM     11  H   UNL     1     -58.335 -63.820 -72.254  0.00  0.00    +0.000 HD
BRANCH  10  12
ATOM     12  C   UNL     1     -57.653 -65.816 -72.465  0.00  0.00    +0.000 A 
ATOM     13  C   UNL     1     -58.148 -66.852 -73.254  0.00  0.00    +0.000 A 
ATOM     14  C   UNL     1     -57.282 -67.795 -73.805  0.00  0.00    +0.000 A 
ATOM     15  C   UNL     1     -55.911 -67.687 -73.590  0.00  0.00    +0.000 A 
ATOM     16  C   UNL     1     -55.407 -66.633 -72.833  0.00  0.00    +0.000 A 
ATOM     17  C   UNL     1     -56.276 -65.694 -72.283  0.00  0.00    +0.000 A 
ENDBRANCH  10  12
ENDBRANCH   7  10
ENDBRANCH   1   7
BRANCH   3  18
ATOM     18  C   UNL     1     -64.024 -62.782 -71.041  0.00  0.00    +0.000 C 
ATOM     19  C   UNL     1     -64.743 -61.839 -70.854  0.00  0.00    +0.000 C 
BRANCH  19  20
ATOM     20  C   UNL     1     -65.607 -60.707 -70.629  0.00  0.00    +0.000 C 
ATOM     21  O   UNL     1     -65.809 -60.295 -69.493  0.00  0.00    +0.000 OA
ATOM     22  N   UNL     1     -66.157 -60.143 -71.747  0.00  0.00    +0.000 N 
ATOM     23  H   UNL     1     -65.955 -60.435 -72.696  0.00  0.00    +0.000 HD
BRANCH  22  24
ATOM     24  O   UNL     1     -66.970 -59.002 -71.570  0.00  0.00    +0.000 OA
ATOM     25  H   UNL     1     -67.622 -59.304 -70.901  0.00  0.00    +0.000 HD
ENDBRANCH  22  24
ENDBRANCH  19  20
ENDBRANCH   3  18
TORSDOF 6
ENDMDL
