MODEL 1
REMARK VINA RESULT:      -6.8      0.000      0.000
REMARK  Name = Benzo[a]pyrene.pdbqt.pdb
REMARK  0 active torsions:
REMARK  status: ('A' for Active; 'I' for Inactive)
REMARK                            x       y       z     vdW  Elec       q    Type
REMARK                         _______ _______ _______ _____ _____    ______ ____
ROOT
ATOM      1  C   UNL     1     -69.781 -56.646 -33.812  0.00  0.00    +0.000 A 
ATOM      2  C   UNL     1     -69.005 -57.401 -34.720  0.00  0.00    +0.000 A 
ATOM      3  C   UNL     1     -69.505 -56.691 -32.427  0.00  0.00    +0.000 A 
ATOM      4  C   UNL     1     -70.834 -55.848 -34.306  0.00  0.00    +0.000 A 
ATOM      5  C   UNL     1     -70.299 -55.924 -31.539  0.00  0.00    +0.000 A 
ATOM      6  C   UNL     1     -67.948 -58.204 -34.248  0.00  0.00    +0.000 A 
ATOM      7  C   UNL     1     -69.285 -57.352 -36.102  0.00  0.00    +0.000 A 
ATOM      8  C   UNL     1     -71.349 -55.131 -32.054  0.00  0.00    +0.000 A 
ATOM      9  C   UNL     1     -71.605 -55.100 -33.422  0.00  0.00    +0.000 A 
ATOM     10  C   UNL     1     -68.444 -57.503 -31.991  0.00  0.00    +0.000 A 
ATOM     11  C   UNL     1     -71.099 -55.810 -35.675  0.00  0.00    +0.000 A 
ATOM     12  C   UNL     1     -67.675 -58.250 -32.884  0.00  0.00    +0.000 A 
ATOM     13  C   UNL     1     -70.331 -56.556 -36.567  0.00  0.00    +0.000 A 
ATOM     14  C   UNL     1     -67.188 -58.946 -35.152  0.00  0.00    +0.000 A 
ATOM     15  C   UNL     1     -68.513 -58.101 -36.990  0.00  0.00    +0.000 A 
ATOM     16  C   UNL     1     -70.088 -55.915 -30.150  0.00  0.00    +0.000 A 
ATOM     17  C   UNL     1     -72.143 -54.368 -31.199  0.00  0.00    +0.000 A 
ATOM     18  C   UNL     1     -67.469 -58.894 -36.516  0.00  0.00    +0.000 A 
ATOM     19  C   UNL     1     -70.885 -55.151 -29.300  0.00  0.00    +0.000 A 
ATOM     20  C   UNL     1     -71.913 -54.377 -29.825  0.00  0.00    +0.000 A 
ENDROOT
TORSDOF 0
ENDMDL
MODEL 2
REMARK VINA RESULT:      -6.6      7.191      9.752
REMARK  Name = Benzo[a]pyrene.pdbqt.pdb
REMARK  0 active torsions:
REMARK  status: ('A' for Active; 'I' for Inactive)
REMARK                            x       y       z     vdW  Elec       q    Type
REMARK                         _______ _______ _______ _____ _____    ______ ____
ROOT
ATOM      1  C   UNL     1     -73.322 -57.204 -24.770  0.00  0.00    +0.000 A 
ATOM      2  C   UNL     1     -72.819 -58.185 -25.654  0.00  0.00    +0.000 A 
ATOM      3  C   UNL     1     -73.129 -57.332 -23.376  0.00  0.00    +0.000 A 
ATOM      4  C   UNL     1     -74.019 -56.096 -25.297  0.00  0.00    +0.000 A 
ATOM      5  C   UNL     1     -73.645 -56.334 -22.513  0.00  0.00    +0.000 A 
ATOM      6  C   UNL     1     -72.120 -59.299 -25.149  0.00  0.00    +0.000 A 
ATOM      7  C   UNL     1     -73.014 -58.052 -27.045  0.00  0.00    +0.000 A 
ATOM      8  C   UNL     1     -74.340 -55.232 -23.061  0.00  0.00    +0.000 A 
ATOM      9  C   UNL     1     -74.520 -55.124 -24.438  0.00  0.00    +0.000 A 
ATOM     10  C   UNL     1     -72.428 -58.456 -22.907  0.00  0.00    +0.000 A 
ATOM     11  C   UNL     1     -74.204 -55.979 -26.674  0.00  0.00    +0.000 A 
ATOM     12  C   UNL     1     -71.929 -59.426 -23.776  0.00  0.00    +0.000 A 
ATOM     13  C   UNL     1     -73.706 -56.949 -27.543  0.00  0.00    +0.000 A 
ATOM     14  C   UNL     1     -71.627 -60.262 -26.029  0.00  0.00    +0.000 A 
ATOM     15  C   UNL     1     -72.513 -59.025 -27.909  0.00  0.00    +0.000 A 
ATOM     16  C   UNL     1     -73.495 -56.389 -21.117  0.00  0.00    +0.000 A 
ATOM     17  C   UNL     1     -74.856 -54.238 -22.230  0.00  0.00    +0.000 A 
ATOM     18  C   UNL     1     -71.823 -60.126 -27.403  0.00  0.00    +0.000 A 
ATOM     19  C   UNL     1     -74.012 -55.393 -20.292  0.00  0.00    +0.000 A 
ATOM     20  C   UNL     1     -74.693 -54.317 -20.849  0.00  0.00    +0.000 A 
ENDROOT
TORSDOF 0
ENDMDL
MODEL 3
REMARK VINA RESULT:      -6.5     24.538     27.369
REMARK  Name = Benzo[a]pyrene.pdbqt.pdb
REMARK  0 active torsions:
REMARK  status: ('A' for Active; 'I' for Inactive)
REMARK                            x       y       z     vdW  Elec       q    Type
REMARK                         _______ _______ _______ _____ _____    ______ ____
ROOT
ATOM      1  C   UNL     1     -64.583 -46.602 -58.266  0.00  0.00    +0.000 A 
ATOM      2  C   UNL     1     -63.469 -46.526 -59.131  0.00  0.00    +0.000 A 
ATOM      3  C   UNL     1     -65.737 -47.323 -58.649  0.00  0.00    +0.000 A 
ATOM      4  C   UNL     1     -64.529 -45.950 -57.016  0.00  0.00    +0.000 A 
ATOM      5  C   UNL     1     -66.840 -47.383 -57.762  0.00  0.00    +0.000 A 
ATOM      6  C   UNL     1     -63.502 -47.169 -60.384  0.00  0.00    +0.000 A 
ATOM      7  C   UNL     1     -62.319 -45.805 -58.744  0.00  0.00    +0.000 A 
ATOM      8  C   UNL     1     -66.765 -46.723 -56.514  0.00  0.00    +0.000 A 
ATOM      9  C   UNL     1     -65.619 -46.018 -56.156  0.00  0.00    +0.000 A 
ATOM     10  C   UNL     1     -65.735 -47.953 -59.906  0.00  0.00    +0.000 A 
ATOM     11  C   UNL     1     -63.386 -45.242 -56.647  0.00  0.00    +0.000 A 
ATOM     12  C   UNL     1     -64.638 -47.880 -60.763  0.00  0.00    +0.000 A 
ATOM     13  C   UNL     1     -62.288 -45.169 -57.504  0.00  0.00    +0.000 A 
ATOM     14  C   UNL     1     -62.397 -47.088 -61.231  0.00  0.00    +0.000 A 
ATOM     15  C   UNL     1     -61.225 -45.736 -59.605  0.00  0.00    +0.000 A 
ATOM     16  C   UNL     1     -68.022 -48.078 -58.069  0.00  0.00    +0.000 A 
ATOM     17  C   UNL     1     -67.839 -46.769 -55.626  0.00  0.00    +0.000 A 
ATOM     18  C   UNL     1     -61.264 -46.375 -60.844  0.00  0.00    +0.000 A 
ATOM     19  C   UNL     1     -69.091 -48.121 -57.177  0.00  0.00    +0.000 A 
ATOM     20  C   UNL     1     -68.999 -47.466 -55.955  0.00  0.00    +0.000 A 
ENDROOT
TORSDOF 0
ENDMDL
MODEL 4
REMARK VINA RESULT:      -6.4      0.707      2.920
REMARK  Name = Benzo[a]pyrene.pdbqt.pdb
REMARK  0 active torsions:
REMARK  status: ('A' for Active; 'I' for Inactive)
REMARK                            x       y       z     vdW  Elec       q    Type
REMARK                         _______ _______ _______ _____ _____    ______ ____
ROOT
ATOM      1  C   UNL     1     -69.376 -57.047 -33.857  0.00  0.00    +0.000 A 
ATOM      2  C   UNL     1     -68.959 -57.529 -35.118  0.00  0.00    +0.000 A 
ATOM      3  C   UNL     1     -70.432 -56.112 -33.763  0.00  0.00    +0.000 A 
ATOM      4  C   UNL     1     -68.726 -57.511 -32.694  0.00  0.00    +0.000 A 
ATOM      5  C   UNL     1     -70.830 -55.646 -32.486  0.00  0.00    +0.000 A 
ATOM      6  C   UNL     1     -69.595 -57.079 -36.292  0.00  0.00    +0.000 A 
ATOM      7  C   UNL     1     -67.904 -58.462 -35.205  0.00  0.00    +0.000 A 
ATOM      8  C   UNL     1     -70.166 -56.123 -31.333  0.00  0.00    +0.000 A 
ATOM      9  C   UNL     1     -69.128 -57.044 -31.447  0.00  0.00    +0.000 A 
ATOM     10  C   UNL     1     -71.044 -55.685 -34.955  0.00  0.00    +0.000 A 
ATOM     11  C   UNL     1     -67.685 -58.433 -32.797  0.00  0.00    +0.000 A 
ATOM     12  C   UNL     1     -70.635 -56.158 -36.201  0.00  0.00    +0.000 A 
ATOM     13  C   UNL     1     -67.276 -58.906 -34.043  0.00  0.00    +0.000 A 
ATOM     14  C   UNL     1     -69.176 -57.560 -37.532  0.00  0.00    +0.000 A 
ATOM     15  C   UNL     1     -67.500 -58.931 -36.455  0.00  0.00    +0.000 A 
ATOM     16  C   UNL     1     -71.870 -54.717 -32.309  0.00  0.00    +0.000 A 
ATOM     17  C   UNL     1     -70.541 -55.677 -30.067  0.00  0.00    +0.000 A 
ATOM     18  C   UNL     1     -68.133 -58.482 -37.613  0.00  0.00    +0.000 A 
ATOM     19  C   UNL     1     -72.240 -54.276 -31.041  0.00  0.00    +0.000 A 
ATOM     20  C   UNL     1     -71.575 -54.756 -29.919  0.00  0.00    +0.000 A 
ENDROOT
TORSDOF 0
ENDMDL
MODEL 5
REMARK VINA RESULT:      -6.4     24.132     27.262
REMARK  Name = Benzo[a]pyrene.pdbqt.pdb
REMARK  0 active torsions:
REMARK  status: ('A' for Active; 'I' for Inactive)
REMARK                            x       y       z     vdW  Elec       q    Type
REMARK                         _______ _______ _______ _____ _____    ______ ____
ROOT
ATOM      1  C   UNL     1     -65.355 -46.960 -57.876  0.00  0.00    +0.000 A 
ATOM      2  C   UNL     1     -66.268 -46.979 -56.799  0.00  0.00    +0.000 A 
ATOM      3  C   UNL     1     -64.016 -46.557 -57.672  0.00  0.00    +0.000 A 
ATOM      4  C   UNL     1     -65.797 -47.351 -59.158  0.00  0.00    +0.000 A 
ATOM      5  C   UNL     1     -63.122 -46.548 -58.771  0.00  0.00    +0.000 A 
ATOM      6  C   UNL     1     -65.847 -46.593 -55.510  0.00  0.00    +0.000 A 
ATOM      7  C   UNL     1     -67.603 -47.383 -57.008  0.00  0.00    +0.000 A 
ATOM      8  C   UNL     1     -63.585 -46.942 -60.047  0.00  0.00    +0.000 A 
ATOM      9  C   UNL     1     -64.908 -47.337 -60.228  0.00  0.00    +0.000 A 
ATOM     10  C   UNL     1     -63.631 -46.178 -56.374  0.00  0.00    +0.000 A 
ATOM     11  C   UNL     1     -67.120 -47.748 -59.350  0.00  0.00    +0.000 A 
ATOM     12  C   UNL     1     -64.528 -46.195 -55.308  0.00  0.00    +0.000 A 
ATOM     13  C   UNL     1     -68.017 -47.764 -58.283  0.00  0.00    +0.000 A 
ATOM     14  C   UNL     1     -66.755 -46.614 -54.452  0.00  0.00    +0.000 A 
ATOM     15  C   UNL     1     -68.496 -47.397 -55.937  0.00  0.00    +0.000 A 
ATOM     16  C   UNL     1     -61.777 -46.160 -58.650  0.00  0.00    +0.000 A 
ATOM     17  C   UNL     1     -62.722 -46.942 -61.143  0.00  0.00    +0.000 A 
ATOM     18  C   UNL     1     -68.074 -47.014 -54.664  0.00  0.00    +0.000 A 
ATOM     19  C   UNL     1     -60.920 -46.161 -59.748  0.00  0.00    +0.000 A 
ATOM     20  C   UNL     1     -61.393 -46.552 -60.995  0.00  0.00    +0.000 A 
ENDROOT
TORSDOF 0
ENDMDL
MODEL 6
REMARK VINA RESULT:      -6.3      6.792     10.343
REMARK  Name = Benzo[a]pyrene.pdbqt.pdb
REMARK  0 active torsions:
REMARK  status: ('A' for Active; 'I' for Inactive)
REMARK                            x       y       z     vdW  Elec       q    Type
REMARK                         _______ _______ _______ _____ _____    ______ ____
ROOT
ATOM      1  C   UNL     1     -73.400 -56.913 -24.380  0.00  0.00    +0.000 A 
ATOM      2  C   UNL     1     -73.051 -57.424 -25.650  0.00  0.00    +0.000 A 
ATOM      3  C   UNL     1     -74.178 -55.738 -24.271  0.00  0.00    +0.000 A 
ATOM      4  C   UNL     1     -72.962 -57.591 -23.223  0.00  0.00    +0.000 A 
ATOM      5  C   UNL     1     -74.513 -55.248 -22.985  0.00  0.00    +0.000 A 
ATOM      6  C   UNL     1     -73.478 -56.762 -26.819  0.00  0.00    +0.000 A 
ATOM      7  C   UNL     1     -72.274 -58.597 -25.753  0.00  0.00    +0.000 A 
ATOM      8  C   UNL     1     -74.064 -55.942 -21.838  0.00  0.00    +0.000 A 
ATOM      9  C   UNL     1     -73.299 -57.098 -21.967  0.00  0.00    +0.000 A 
ATOM     10  C   UNL     1     -74.587 -55.104 -25.458  0.00  0.00    +0.000 A 
ATOM     11  C   UNL     1     -72.195 -58.749 -23.340  0.00  0.00    +0.000 A 
ATOM     12  C   UNL     1     -74.245 -55.605 -26.713  0.00  0.00    +0.000 A 
ATOM     13  C   UNL     1     -71.853 -59.250 -24.596  0.00  0.00    +0.000 A 
ATOM     14  C   UNL     1     -73.129 -57.274 -28.068  0.00  0.00    +0.000 A 
ATOM     15  C   UNL     1     -71.935 -59.092 -27.012  0.00  0.00    +0.000 A 
ATOM     16  C   UNL     1     -75.282 -54.088 -22.793  0.00  0.00    +0.000 A 
ATOM     17  C   UNL     1     -74.383 -55.478 -20.562  0.00  0.00    +0.000 A 
ATOM     18  C   UNL     1     -72.361 -58.433 -28.165  0.00  0.00    +0.000 A 
ATOM     19  C   UNL     1     -75.597 -53.629 -21.516  0.00  0.00    +0.000 A 
ATOM     20  C   UNL     1     -75.147 -54.325 -20.400  0.00  0.00    +0.000 A 
ENDROOT
TORSDOF 0
ENDMDL
MODEL 7
REMARK VINA RESULT:      -6.3      1.241      6.219
REMARK  Name = Benzo[a]pyrene.pdbqt.pdb
REMARK  0 active torsions:
REMARK  status: ('A' for Active; 'I' for Inactive)
REMARK                            x       y       z     vdW  Elec       q    Type
REMARK                         _______ _______ _______ _____ _____    ______ ____
ROOT
ATOM      1  C   UNL     1     -69.388 -56.879 -34.659  0.00  0.00    +0.000 A 
ATOM      2  C   UNL     1     -69.912 -56.526 -33.395  0.00  0.00    +0.000 A 
ATOM      3  C   UNL     1     -70.017 -56.433 -35.843  0.00  0.00    +0.000 A 
ATOM      4  C   UNL     1     -68.229 -57.681 -34.723  0.00  0.00    +0.000 A 
ATOM      5  C   UNL     1     -69.470 -56.801 -37.097  0.00  0.00    +0.000 A 
ATOM      6  C   UNL     1     -71.069 -55.726 -33.309  0.00  0.00    +0.000 A 
ATOM      7  C   UNL     1     -69.280 -56.974 -32.216  0.00  0.00    +0.000 A 
ATOM      8  C   UNL     1     -68.308 -57.606 -37.139  0.00  0.00    +0.000 A 
ATOM      9  C   UNL     1     -67.703 -58.035 -35.961  0.00  0.00    +0.000 A 
ATOM     10  C   UNL     1     -71.169 -55.636 -35.720  0.00  0.00    +0.000 A 
ATOM     11  C   UNL     1     -67.616 -58.116 -33.548  0.00  0.00    +0.000 A 
ATOM     12  C   UNL     1     -71.689 -55.286 -34.475  0.00  0.00    +0.000 A 
ATOM     13  C   UNL     1     -68.136 -57.766 -32.303  0.00  0.00    +0.000 A 
ATOM     14  C   UNL     1     -71.579 -55.383 -32.057  0.00  0.00    +0.000 A 
ATOM     15  C   UNL     1     -69.806 -56.620 -30.974  0.00  0.00    +0.000 A 
ATOM     16  C   UNL     1     -70.036 -56.399 -38.318  0.00  0.00    +0.000 A 
ATOM     17  C   UNL     1     -67.753 -57.981 -38.362  0.00  0.00    +0.000 A 
ATOM     18  C   UNL     1     -70.951 -55.828 -30.895  0.00  0.00    +0.000 A 
ATOM     19  C   UNL     1     -69.476 -56.777 -39.537  0.00  0.00    +0.000 A 
ATOM     20  C   UNL     1     -68.334 -57.568 -39.558  0.00  0.00    +0.000 A 
ENDROOT
TORSDOF 0
ENDMDL
MODEL 8
REMARK VINA RESULT:      -6.3     31.963     36.042
REMARK  Name = Benzo[a]pyrene.pdbqt.pdb
REMARK  0 active torsions:
REMARK  status: ('A' for Active; 'I' for Inactive)
REMARK                            x       y       z     vdW  Elec       q    Type
REMARK                         _______ _______ _______ _____ _____    ______ ____
ROOT
ATOM      1  C   UNL     1     -55.295 -58.018 -65.585  0.00  0.00    +0.000 A 
ATOM      2  C   UNL     1     -56.003 -58.478 -64.452  0.00  0.00    +0.000 A 
ATOM      3  C   UNL     1     -55.652 -58.462 -66.879  0.00  0.00    +0.000 A 
ATOM      4  C   UNL     1     -54.228 -57.112 -65.408  0.00  0.00    +0.000 A 
ATOM      5  C   UNL     1     -54.925 -57.984 -67.998  0.00  0.00    +0.000 A 
ATOM      6  C   UNL     1     -57.071 -59.383 -64.607  0.00  0.00    +0.000 A 
ATOM      7  C   UNL     1     -55.642 -58.032 -63.163  0.00  0.00    +0.000 A 
ATOM      8  C   UNL     1     -53.860 -57.077 -67.799  0.00  0.00    +0.000 A 
ATOM      9  C   UNL     1     -53.524 -56.652 -66.516  0.00  0.00    +0.000 A 
ATOM     10  C   UNL     1     -56.723 -59.365 -66.996  0.00  0.00    +0.000 A 
ATOM     11  C   UNL     1     -53.884 -56.681 -64.128  0.00  0.00    +0.000 A 
ATOM     12  C   UNL     1     -57.424 -59.821 -65.880  0.00  0.00    +0.000 A 
ATOM     13  C   UNL     1     -54.585 -57.137 -63.012  0.00  0.00    +0.000 A 
ATOM     14  C   UNL     1     -57.764 -59.831 -63.482  0.00  0.00    +0.000 A 
ATOM     15  C   UNL     1     -56.348 -58.492 -62.051  0.00  0.00    +0.000 A 
ATOM     16  C   UNL     1     -55.218 -58.377 -69.315  0.00  0.00    +0.000 A 
ATOM     17  C   UNL     1     -53.131 -56.594 -68.885  0.00  0.00    +0.000 A 
ATOM     18  C   UNL     1     -57.404 -59.388 -62.211  0.00  0.00    +0.000 A 
ATOM     19  C   UNL     1     -54.486 -57.892 -70.396  0.00  0.00    +0.000 A 
ATOM     20  C   UNL     1     -53.442 -57.000 -70.181  0.00  0.00    +0.000 A 
ENDROOT
TORSDOF 0
ENDMDL
MODEL 9
REMARK VINA RESULT:      -6.2     31.888     35.924
REMARK  Name = Benzo[a]pyrene.pdbqt.pdb
REMARK  0 active torsions:
REMARK  status: ('A' for Active; 'I' for Inactive)
REMARK                            x       y       z     vdW  Elec       q    Type
REMARK                         _______ _______ _______ _____ _____    ______ ____
ROOT
ATOM      1  C   UNL     1     -55.305 -58.047 -65.509  0.00  0.00    +0.000 A 
ATOM      2  C   UNL     1     -55.404 -57.994 -64.101  0.00  0.00    +0.000 A 
ATOM      3  C   UNL     1     -54.306 -57.309 -66.183  0.00  0.00    +0.000 A 
ATOM      4  C   UNL     1     -56.216 -58.845 -66.233  0.00  0.00    +0.000 A 
ATOM      5  C   UNL     1     -54.230 -57.380 -67.596  0.00  0.00    +0.000 A 
ATOM      6  C   UNL     1     -54.504 -57.203 -63.359  0.00  0.00    +0.000 A 
ATOM      7  C   UNL     1     -56.403 -58.733 -63.433  0.00  0.00    +0.000 A 
ATOM      8  C   UNL     1     -55.152 -58.185 -68.302  0.00  0.00    +0.000 A 
ATOM      9  C   UNL     1     -56.129 -58.905 -67.619  0.00  0.00    +0.000 A 
ATOM     10  C   UNL     1     -53.425 -56.531 -65.412  0.00  0.00    +0.000 A 
ATOM     11  C   UNL     1     -57.199 -59.569 -65.558  0.00  0.00    +0.000 A 
ATOM     12  C   UNL     1     -53.519 -56.476 -64.022  0.00  0.00    +0.000 A 
ATOM     13  C   UNL     1     -57.293 -59.514 -64.168  0.00  0.00    +0.000 A 
ATOM     14  C   UNL     1     -54.609 -57.158 -61.969  0.00  0.00    +0.000 A 
ATOM     15  C   UNL     1     -56.492 -58.674 -62.042  0.00  0.00    +0.000 A 
ATOM     16  C   UNL     1     -53.266 -56.677 -68.339  0.00  0.00    +0.000 A 
ATOM     17  C   UNL     1     -55.096 -58.270 -69.693  0.00  0.00    +0.000 A 
ATOM     18  C   UNL     1     -55.599 -57.890 -61.313  0.00  0.00    +0.000 A 
ATOM     19  C   UNL     1     -53.215 -56.766 -69.728  0.00  0.00    +0.000 A 
ATOM     20  C   UNL     1     -54.130 -57.563 -70.406  0.00  0.00    +0.000 A 
ENDROOT
TORSDOF 0
ENDMDL
