MODEL 1
REMARK VINA RESULT:      -5.8      0.000      0.000
REMARK  Name = Bicalutamide.pdbqt.pdb
REMARK  8 active torsions:
REMARK  status: ('A' for Active; 'I' for Inactive)
REMARK    1  A    between atoms: C_2  and  N_13
REMARK    2  A    between atoms: C_5  and  C_9
REMARK    3  A    between atoms: C_6  and  C_8
REMARK    4  A    between atoms: C_14  and  C_17
REMARK    5  A    between atoms: C_17  and  O_19
REMARK    6  A    between atoms: C_17  and  C_21
REMARK    7  A    between atoms: C_21  and  S_22
REMARK    8  A    between atoms: S_22  and  C_25
REMARK                            x       y       z     vdW  Elec       q    Type
REMARK                         _______ _______ _______ _____ _____    ______ ____
ROOT
ATOM      1  N   UNL     1     -64.920 -60.886 -77.293  0.00  0.00    +0.000 N 
ATOM      2  C   UNL     1     -63.590 -60.558 -77.547  0.00  0.00    +0.000 C 
ATOM      3  O   UNL     1     -62.897 -59.830 -76.830  0.00  0.00    +0.000 OA
ATOM      4  H   UNL     1     -65.344 -61.579 -77.912  0.00  0.00    +0.000 HD
ENDROOT
BRANCH   1   5
ATOM      5  C   UNL     1     -65.695 -60.415 -76.222  0.00  0.00    +0.000 A 
ATOM      6  C   UNL     1     -65.410 -60.906 -74.948  0.00  0.00    +0.000 A 
ATOM      7  C   UNL     1     -66.731 -59.500 -76.381  0.00  0.00    +0.000 A 
ATOM      8  C   UNL     1     -66.143 -60.494 -73.829  0.00  0.00    +0.000 A 
ATOM      9  C   UNL     1     -67.184 -59.569 -74.004  0.00  0.00    +0.000 A 
ATOM     10  C   UNL     1     -67.471 -59.079 -75.279  0.00  0.00    +0.000 A 
BRANCH   8  11
ATOM     11  C   UNL     1     -65.794 -61.054 -72.481  0.00  0.00    +0.000 C 
ATOM     12  F   UNL     1     -64.620 -61.744 -72.474  0.00  0.00    +0.000 F 
ATOM     13  F   UNL     1     -65.660 -60.085 -71.538  0.00  0.00    +0.000 F 
ATOM     14  F   UNL     1     -66.735 -61.918 -72.018  0.00  0.00    +0.000 F 
ENDBRANCH   8  11
BRANCH   9  16
ATOM     15  N   UNL     1     -68.635 -58.720 -72.033  0.00  0.00    +0.000 NA
ATOM     16  C   UNL     1     -67.979 -59.098 -72.911  0.00  0.00    +0.000 C 
ENDBRANCH   9  16
ENDBRANCH   1   5
BRANCH   2  17
ATOM     17  C   UNL     1     -62.991 -61.157 -78.884  0.00  0.00    +0.000 C 
ATOM     18  C   UNL     1     -64.024 -62.066 -79.609  0.00  0.00    +0.000 C 
BRANCH  17  19
ATOM     19  O   UNL     1     -61.856 -61.958 -78.599  0.00  0.00    +0.000 OA
ATOM     20  H   UNL     1     -61.554 -61.655 -77.722  0.00  0.00    +0.000 HD
ENDBRANCH  17  19
BRANCH  17  21
ATOM     21  C   UNL     1     -62.591 -60.066 -79.719  0.00  0.00    +0.000 C 
BRANCH  21  22
ATOM     22  S   UNL     1     -62.318 -58.755 -80.806  0.00  0.00    +0.000 S 
ATOM     23  O   UNL     1     -62.946 -59.328 -81.969  0.00  0.00    +0.000 OA
ATOM     24  O   UNL     1     -60.896 -58.649 -80.584  0.00  0.00    +0.000 OA
BRANCH  22  25
ATOM     25  C   UNL     1     -63.165 -57.356 -80.237  0.00  0.00    +0.000 A 
ATOM     26  C   UNL     1     -62.469 -56.155 -80.159  0.00  0.00    +0.000 A 
ATOM     27  C   UNL     1     -63.122 -55.021 -79.683  0.00  0.00    +0.000 A 
ATOM     28  C   UNL     1     -64.455 -55.114 -79.291  0.00  0.00    +0.000 A 
ATOM     29  F   UNL     1     -65.083 -54.022 -78.834  0.00  0.00    +0.000 F 
ATOM     30  C   UNL     1     -65.146 -56.320 -79.365  0.00  0.00    +0.000 A 
ATOM     31  C   UNL     1     -64.495 -57.454 -79.840  0.00  0.00    +0.000 A 
ENDBRANCH  22  25
ENDBRANCH  21  22
ENDBRANCH  17  21
ENDBRANCH   2  17
TORSDOF 8
ENDMDL
MODEL 2
REMARK VINA RESULT:      -5.8     38.385     42.417
REMARK  Name = Bicalutamide.pdbqt.pdb
REMARK  8 active torsions:
REMARK  status: ('A' for Active; 'I' for Inactive)
REMARK    1  A    between atoms: C_2  and  N_13
REMARK    2  A    between atoms: C_5  and  C_9
REMARK    3  A    between atoms: C_6  and  C_8
REMARK    4  A    between atoms: C_14  and  C_17
REMARK    5  A    between atoms: C_17  and  O_19
REMARK    6  A    between atoms: C_17  and  C_21
REMARK    7  A    between atoms: C_21  and  S_22
REMARK    8  A    between atoms: S_22  and  C_25
REMARK                            x       y       z     vdW  Elec       q    Type
REMARK                         _______ _______ _______ _____ _____    ______ ____
ROOT
ATOM      1  N   UNL     1     -68.509 -58.060 -35.945  0.00  0.00    +0.000 N 
ATOM      2  C   UNL     1     -67.700 -58.611 -34.955  0.00  0.00    +0.000 C 
ATOM      3  O   UNL     1     -66.554 -59.033 -35.139  0.00  0.00    +0.000 OA
ATOM      4  H   UNL     1     -69.395 -57.657 -35.637  0.00  0.00    +0.000 HD
ENDROOT
BRANCH   1   5
ATOM      5  C   UNL     1     -68.181 -57.935 -37.305  0.00  0.00    +0.000 A 
ATOM      6  C   UNL     1     -67.895 -56.659 -37.790  0.00  0.00    +0.000 A 
ATOM      7  C   UNL     1     -68.142 -59.018 -38.177  0.00  0.00    +0.000 A 
ATOM      8  C   UNL     1     -67.568 -56.450 -39.135  0.00  0.00    +0.000 A 
ATOM      9  C   UNL     1     -67.531 -57.551 -40.003  0.00  0.00    +0.000 A 
ATOM     10  C   UNL     1     -67.819 -58.829 -39.518  0.00  0.00    +0.000 A 
BRANCH   8  11
ATOM     11  C   UNL     1     -67.269 -55.056 -39.604  0.00  0.00    +0.000 C 
ATOM     12  F   UNL     1     -67.167 -54.156 -38.587  0.00  0.00    +0.000 F 
ATOM     13  F   UNL     1     -66.095 -54.980 -40.285  0.00  0.00    +0.000 F 
ATOM     14  F   UNL     1     -68.230 -54.570 -40.434  0.00  0.00    +0.000 F 
ENDBRANCH   8  11
BRANCH   9  16
ATOM     15  N   UNL     1     -66.945 -57.299 -42.514  0.00  0.00    +0.000 NA
ATOM     16  C   UNL     1     -67.205 -57.420 -41.390  0.00  0.00    +0.000 C 
ENDBRANCH   9  16
ENDBRANCH   1   5
BRANCH   2  17
ATOM     17  C   UNL     1     -68.363 -58.715 -33.522  0.00  0.00    +0.000 C 
ATOM     18  C   UNL     1     -67.349 -58.350 -32.401  0.00  0.00    +0.000 C 
BRANCH  17  19
ATOM     19  O   UNL     1     -68.798 -60.043 -33.277  0.00  0.00    +0.000 OA
ATOM     20  H   UNL     1     -69.524 -60.186 -33.913  0.00  0.00    +0.000 HD
ENDBRANCH  17  19
BRANCH  17  21
ATOM     21  C   UNL     1     -69.496 -57.843 -33.493  0.00  0.00    +0.000 C 
BRANCH  21  22
ATOM     22  S   UNL     1     -70.837 -56.773 -33.679  0.00  0.00    +0.000 S 
ATOM     23  O   UNL     1     -71.882 -57.766 -33.698  0.00  0.00    +0.000 OA
ATOM     24  O   UNL     1     -70.328 -56.067 -34.829  0.00  0.00    +0.000 OA
BRANCH  22  25
ATOM     25  C   UNL     1     -70.946 -55.748 -32.288  0.00  0.00    +0.000 A 
ATOM     26  C   UNL     1     -71.937 -54.772 -32.270  0.00  0.00    +0.000 A 
ATOM     27  C   UNL     1     -72.031 -53.920 -31.173  0.00  0.00    +0.000 A 
ATOM     28  C   UNL     1     -71.129 -54.058 -30.121  0.00  0.00    +0.000 A 
ATOM     29  F   UNL     1     -71.219 -53.237 -29.066  0.00  0.00    +0.000 F 
ATOM     30  C   UNL     1     -70.134 -55.031 -30.147  0.00  0.00    +0.000 A 
ATOM     31  C   UNL     1     -70.039 -55.883 -31.242  0.00  0.00    +0.000 A 
ENDBRANCH  22  25
ENDBRANCH  21  22
ENDBRANCH  17  21
ENDBRANCH   2  17
TORSDOF 8
ENDMDL
MODEL 3
REMARK VINA RESULT:      -5.7     13.113     16.259
REMARK  Name = Bicalutamide.pdbqt.pdb
REMARK  8 active torsions:
REMARK  status: ('A' for Active; 'I' for Inactive)
REMARK    1  A    between atoms: C_2  and  N_13
REMARK    2  A    between atoms: C_5  and  C_9
REMARK    3  A    between atoms: C_6  and  C_8
REMARK    4  A    between atoms: C_14  and  C_17
REMARK    5  A    between atoms: C_17  and  O_19
REMARK    6  A    between atoms: C_17  and  C_21
REMARK    7  A    between atoms: C_21  and  S_22
REMARK    8  A    between atoms: S_22  and  C_25
REMARK                            x       y       z     vdW  Elec       q    Type
REMARK                         _______ _______ _______ _____ _____    ______ ____
ROOT
ATOM      1  N   UNL     1     -57.271 -59.961 -65.307  0.00  0.00    +0.000 N 
ATOM      2  C   UNL     1     -58.529 -60.522 -65.515  0.00  0.00    +0.000 C 
ATOM      3  O   UNL     1     -58.924 -60.982 -66.591  0.00  0.00    +0.000 OA
ATOM      4  H   UNL     1     -57.038 -59.712 -64.345  0.00  0.00    +0.000 HD
ENDROOT
BRANCH   1   5
ATOM      5  C   UNL     1     -56.275 -59.787 -66.280  0.00  0.00    +0.000 A 
ATOM      6  C   UNL     1     -56.394 -58.701 -67.146  0.00  0.00    +0.000 A 
ATOM      7  C   UNL     1     -55.194 -60.653 -66.421  0.00  0.00    +0.000 A 
ATOM      8  C   UNL     1     -55.447 -58.463 -68.149  0.00  0.00    +0.000 A 
ATOM      9  C   UNL     1     -54.361 -59.343 -68.278  0.00  0.00    +0.000 A 
ATOM     10  C   UNL     1     -54.243 -60.432 -67.413  0.00  0.00    +0.000 A 
BRANCH   8  11
ATOM     11  C   UNL     1     -55.623 -57.279 -69.054  0.00  0.00    +0.000 C 
ATOM     12  F   UNL     1     -55.629 -57.608 -70.375  0.00  0.00    +0.000 F 
ATOM     13  F   UNL     1     -56.794 -56.627 -68.829  0.00  0.00    +0.000 F 
ATOM     14  F   UNL     1     -54.633 -56.360 -68.905  0.00  0.00    +0.000 F 
ENDBRANCH   8  11
BRANCH   9  16
ATOM     15  N   UNL     1     -52.534 -59.013 -70.084  0.00  0.00    +0.000 NA
ATOM     16  C   UNL     1     -53.352 -59.169 -69.278  0.00  0.00    +0.000 C 
ENDBRANCH   9  16
ENDBRANCH   1   5
BRANCH   2  17
ATOM     17  C   UNL     1     -59.492 -60.503 -64.259  0.00  0.00    +0.000 C 
ATOM     18  C   UNL     1     -60.306 -61.824 -64.150  0.00  0.00    +0.000 C 
BRANCH  17  19
ATOM     19  O   UNL     1     -60.428 -59.443 -64.372  0.00  0.00    +0.000 OA
ATOM     20  H   UNL     1     -61.014 -59.547 -63.598  0.00  0.00    +0.000 HD
ENDBRANCH  17  19
BRANCH  17  21
ATOM     21  C   UNL     1     -58.694 -60.294 -63.090  0.00  0.00    +0.000 C 
BRANCH  21  22
ATOM     22  S   UNL     1     -57.916 -59.959 -61.587  0.00  0.00    +0.000 S 
ATOM     23  O   UNL     1     -56.571 -59.820 -62.087  0.00  0.00    +0.000 OA
ATOM     24  O   UNL     1     -58.434 -61.100 -60.874  0.00  0.00    +0.000 OA
BRANCH  22  25
ATOM     25  C   UNL     1     -58.525 -58.469 -60.950  0.00  0.00    +0.000 A 
ATOM     26  C   UNL     1     -59.890 -58.371 -60.702  0.00  0.00    +0.000 A 
ATOM     27  C   UNL     1     -60.407 -57.176 -60.211  0.00  0.00    +0.000 A 
ATOM     28  C   UNL     1     -59.550 -56.102 -59.983  0.00  0.00    +0.000 A 
ATOM     29  F   UNL     1     -60.049 -54.952 -59.510  0.00  0.00    +0.000 F 
ATOM     30  C   UNL     1     -58.185 -56.202 -60.239  0.00  0.00    +0.000 A 
ATOM     31  C   UNL     1     -57.667 -57.396 -60.730  0.00  0.00    +0.000 A 
ENDBRANCH  22  25
ENDBRANCH  21  22
ENDBRANCH  17  21
ENDBRANCH   2  17
TORSDOF 8
ENDMDL
MODEL 4
REMARK VINA RESULT:      -5.7     13.896     15.904
REMARK  Name = Bicalutamide.pdbqt.pdb
REMARK  8 active torsions:
REMARK  status: ('A' for Active; 'I' for Inactive)
REMARK    1  A    between atoms: C_2  and  N_13
REMARK    2  A    between atoms: C_5  and  C_9
REMARK    3  A    between atoms: C_6  and  C_8
REMARK    4  A    between atoms: C_14  and  C_17
REMARK    5  A    between atoms: C_17  and  O_19
REMARK    6  A    between atoms: C_17  and  C_21
REMARK    7  A    between atoms: C_21  and  S_22
REMARK    8  A    between atoms: S_22  and  C_25
REMARK                            x       y       z     vdW  Elec       q    Type
REMARK                         _______ _______ _______ _____ _____    ______ ____
ROOT
ATOM      1  N   UNL     1     -49.755 -60.931 -78.040  0.00  0.00    +0.000 N 
ATOM      2  C   UNL     1     -50.541 -60.273 -78.983  0.00  0.00    +0.000 C 
ATOM      3  O   UNL     1     -51.664 -59.809 -78.761  0.00  0.00    +0.000 OA
ATOM      4  H   UNL     1     -48.806 -61.175 -78.328  0.00  0.00    +0.000 HD
ENDROOT
BRANCH   1   5
ATOM      5  C   UNL     1     -50.120 -61.213 -76.714  0.00  0.00    +0.000 A 
ATOM      6  C   UNL     1     -51.061 -62.220 -76.498  0.00  0.00    +0.000 A 
ATOM      7  C   UNL     1     -49.596 -60.527 -75.623  0.00  0.00    +0.000 A 
ATOM      8  C   UNL     1     -51.484 -62.554 -75.207  0.00  0.00    +0.000 A 
ATOM      9  C   UNL     1     -50.946 -61.856 -74.115  0.00  0.00    +0.000 A 
ATOM     10  C   UNL     1     -50.006 -60.847 -74.330  0.00  0.00    +0.000 A 
BRANCH   8  11
ATOM     11  C   UNL     1     -52.498 -63.646 -75.031  0.00  0.00    +0.000 C 
ATOM     12  F   UNL     1     -52.027 -64.709 -74.322  0.00  0.00    +0.000 F 
ATOM     13  F   UNL     1     -53.606 -63.221 -74.369  0.00  0.00    +0.000 F 
ATOM     14  F   UNL     1     -52.926 -64.153 -76.218  0.00  0.00    +0.000 F 
ENDBRANCH   8  11
BRANCH   9  16
ATOM     15  N   UNL     1     -51.642 -62.380 -71.675  0.00  0.00    +0.000 NA
ATOM     16  C   UNL     1     -51.327 -62.139 -72.765  0.00  0.00    +0.000 C 
ENDBRANCH   9  16
ENDBRANCH   1   5
BRANCH   2  17
ATOM     17  C   UNL     1     -49.917 -60.178 -80.434  0.00  0.00    +0.000 C 
ATOM     18  C   UNL     1     -49.837 -58.704 -80.921  0.00  0.00    +0.000 C 
BRANCH  17  19
ATOM     19  O   UNL     1     -50.724 -60.883 -81.363  0.00  0.00    +0.000 OA
ATOM     20  H   UNL     1     -50.128 -61.553 -81.750  0.00  0.00    +0.000 HD
ENDBRANCH  17  19
BRANCH  17  21
ATOM     21  C   UNL     1     -48.618 -60.778 -80.399  0.00  0.00    +0.000 C 
BRANCH  21  22
ATOM     22  S   UNL     1     -47.146 -61.675 -80.461  0.00  0.00    +0.000 S 
ATOM     23  O   UNL     1     -46.800 -61.584 -79.065  0.00  0.00    +0.000 OA
ATOM     24  O   UNL     1     -46.537 -60.921 -81.529  0.00  0.00    +0.000 OA
BRANCH  22  25
ATOM     25  C   UNL     1     -47.490 -63.304 -80.936  0.00  0.00    +0.000 A 
ATOM     26  C   UNL     1     -47.039 -64.335 -80.119  0.00  0.00    +0.000 A 
ATOM     27  C   UNL     1     -47.284 -65.654 -80.491  0.00  0.00    +0.000 A 
ATOM     28  C   UNL     1     -47.969 -65.914 -81.675  0.00  0.00    +0.000 A 
ATOM     29  F   UNL     1     -48.204 -67.184 -82.033  0.00  0.00    +0.000 F 
ATOM     30  C   UNL     1     -48.413 -64.879 -82.494  0.00  0.00    +0.000 A 
ATOM     31  C   UNL     1     -48.169 -63.561 -82.123  0.00  0.00    +0.000 A 
ENDBRANCH  22  25
ENDBRANCH  21  22
ENDBRANCH  17  21
ENDBRANCH   2  17
TORSDOF 8
ENDMDL
MODEL 5
REMARK VINA RESULT:      -5.7     22.046     23.869
REMARK  Name = Bicalutamide.pdbqt.pdb
REMARK  8 active torsions:
REMARK  status: ('A' for Active; 'I' for Inactive)
REMARK    1  A    between atoms: C_2  and  N_13
REMARK    2  A    between atoms: C_5  and  C_9
REMARK    3  A    between atoms: C_6  and  C_8
REMARK    4  A    between atoms: C_14  and  C_17
REMARK    5  A    between atoms: C_17  and  O_19
REMARK    6  A    between atoms: C_17  and  C_21
REMARK    7  A    between atoms: C_21  and  S_22
REMARK    8  A    between atoms: S_22  and  C_25
REMARK                            x       y       z     vdW  Elec       q    Type
REMARK                         _______ _______ _______ _____ _____    ______ ____
ROOT
ATOM      1  N   UNL     1     -60.262 -44.908 -57.795  0.00  0.00    +0.000 N 
ATOM      2  C   UNL     1     -59.941 -43.560 -57.938  0.00  0.00    +0.000 C 
ATOM      3  O   UNL     1     -60.583 -42.754 -58.619  0.00  0.00    +0.000 OA
ATOM      4  H   UNL     1     -59.707 -45.439 -57.123  0.00  0.00    +0.000 HD
ENDROOT
BRANCH   1   5
ATOM      5  C   UNL     1     -61.324 -45.574 -58.427  0.00  0.00    +0.000 A 
ATOM      6  C   UNL     1     -62.562 -45.580 -57.784  0.00  0.00    +0.000 A 
ATOM      7  C   UNL     1     -61.188 -46.232 -59.646  0.00  0.00    +0.000 A 
ATOM      8  C   UNL     1     -63.668 -46.230 -58.344  0.00  0.00    +0.000 A 
ATOM      9  C   UNL     1     -63.517 -46.887 -59.574  0.00  0.00    +0.000 A 
ATOM     10  C   UNL     1     -62.278 -46.884 -60.217  0.00  0.00    +0.000 A 
BRANCH   8  11
ATOM     11  C   UNL     1     -64.977 -46.204 -57.610  0.00  0.00    +0.000 C 
ATOM     12  F   UNL     1     -64.926 -45.503 -56.444  0.00  0.00    +0.000 F 
ATOM     13  F   UNL     1     -65.969 -45.633 -58.342  0.00  0.00    +0.000 F 
ATOM     14  F   UNL     1     -65.409 -47.449 -57.276  0.00  0.00    +0.000 F 
ENDBRANCH   8  11
BRANCH   9  16
ATOM     15  N   UNL     1     -65.478 -48.139 -60.715  0.00  0.00    +0.000 NA
ATOM     16  C   UNL     1     -64.600 -47.574 -60.211  0.00  0.00    +0.000 C 
ENDBRANCH   9  16
ENDBRANCH   1   5
BRANCH   2  17
ATOM     17  C   UNL     1     -58.629 -43.095 -57.185  0.00  0.00    +0.000 C 
ATOM     18  C   UNL     1     -57.974 -44.273 -56.410  0.00  0.00    +0.000 C 
BRANCH  17  19
ATOM     19  O   UNL     1     -58.939 -42.090 -56.233  0.00  0.00    +0.000 OA
ATOM     20  H   UNL     1     -59.333 -41.366 -56.757  0.00  0.00    +0.000 HD
ENDBRANCH  17  19
BRANCH  17  21
ATOM     21  C   UNL     1     -57.729 -42.554 -58.155  0.00  0.00    +0.000 C 
BRANCH  21  22
ATOM     22  S   UNL     1     -56.801 -41.750 -59.367  0.00  0.00    +0.000 S 
ATOM     23  O   UNL     1     -55.492 -42.034 -58.836  0.00  0.00    +0.000 OA
ATOM     24  O   UNL     1     -57.485 -40.482 -59.286  0.00  0.00    +0.000 OA
BRANCH  22  25
ATOM     25  C   UNL     1     -57.061 -42.527 -60.893  0.00  0.00    +0.000 A 
ATOM     26  C   UNL     1     -55.951 -42.996 -61.587  0.00  0.00    +0.000 A 
ATOM     27  C   UNL     1     -56.132 -43.604 -62.827  0.00  0.00    +0.000 A 
ATOM     28  C   UNL     1     -57.418 -43.724 -63.348  0.00  0.00    +0.000 A 
ATOM     29  F   UNL     1     -57.592 -44.309 -64.541  0.00  0.00    +0.000 F 
ATOM     30  C   UNL     1     -58.525 -43.246 -62.653  0.00  0.00    +0.000 A 
ATOM     31  C   UNL     1     -58.346 -42.639 -61.414  0.00  0.00    +0.000 A 
ENDBRANCH  22  25
ENDBRANCH  21  22
ENDBRANCH  17  21
ENDBRANCH   2  17
TORSDOF 8
ENDMDL
MODEL 6
REMARK VINA RESULT:      -5.7      9.570     12.977
REMARK  Name = Bicalutamide.pdbqt.pdb
REMARK  8 active torsions:
REMARK  status: ('A' for Active; 'I' for Inactive)
REMARK    1  A    between atoms: C_2  and  N_13
REMARK    2  A    between atoms: C_5  and  C_9
REMARK    3  A    between atoms: C_6  and  C_8
REMARK    4  A    between atoms: C_14  and  C_17
REMARK    5  A    between atoms: C_17  and  O_19
REMARK    6  A    between atoms: C_17  and  C_21
REMARK    7  A    between atoms: C_21  and  S_22
REMARK    8  A    between atoms: S_22  and  C_25
REMARK                            x       y       z     vdW  Elec       q    Type
REMARK                         _______ _______ _______ _____ _____    ______ ____
ROOT
ATOM      1  N   UNL     1     -58.329 -49.728 -77.877  0.00  0.00    +0.000 N 
ATOM      2  C   UNL     1     -59.193 -50.492 -77.096  0.00  0.00    +0.000 C 
ATOM      3  O   UNL     1     -58.843 -51.194 -76.142  0.00  0.00    +0.000 OA
ATOM      4  H   UNL     1     -58.762 -49.116 -78.569  0.00  0.00    +0.000 HD
ENDROOT
BRANCH   1   5
ATOM      5  C   UNL     1     -56.933 -49.665 -77.741  0.00  0.00    +0.000 A 
ATOM      6  C   UNL     1     -56.410 -48.756 -76.821  0.00  0.00    +0.000 A 
ATOM      7  C   UNL     1     -56.063 -50.453 -78.487  0.00  0.00    +0.000 A 
ATOM      8  C   UNL     1     -55.030 -48.626 -76.632  0.00  0.00    +0.000 A 
ATOM      9  C   UNL     1     -54.164 -49.428 -77.390  0.00  0.00    +0.000 A 
ATOM     10  C   UNL     1     -54.686 -50.336 -78.314  0.00  0.00    +0.000 A 
BRANCH   8  11
ATOM     11  C   UNL     1     -54.521 -47.633 -75.629  0.00  0.00    +0.000 C 
ATOM     12  F   UNL     1     -53.772 -48.200 -74.643  0.00  0.00    +0.000 F 
ATOM     13  F   UNL     1     -53.729 -46.684 -76.195  0.00  0.00    +0.000 F 
ATOM     14  F   UNL     1     -55.526 -46.971 -74.997  0.00  0.00    +0.000 F 
ENDBRANCH   8  11
BRANCH   9  16
ATOM     15  N   UNL     1     -51.587 -49.309 -77.148  0.00  0.00    +0.000 NA
ATOM     16  C   UNL     1     -52.740 -49.354 -77.257  0.00  0.00    +0.000 C 
ENDBRANCH   9  16
ENDBRANCH   1   5
BRANCH   2  17
ATOM     17  C   UNL     1     -60.714 -50.450 -77.534  0.00  0.00    +0.000 C 
ATOM     18  C   UNL     1     -61.237 -48.989 -77.622  0.00  0.00    +0.000 C 
BRANCH  17  19
ATOM     19  O   UNL     1     -61.518 -51.127 -76.582  0.00  0.00    +0.000 OA
ATOM     20  H   UNL     1     -60.881 -51.525 -75.959  0.00  0.00    +0.000 HD
ENDBRANCH  17  19
BRANCH  17  21
ATOM     21  C   UNL     1     -60.830 -51.114 -78.796  0.00  0.00    +0.000 C 
BRANCH  21  22
ATOM     22  S   UNL     1     -60.869 -51.736 -80.404  0.00  0.00    +0.000 S 
ATOM     23  O   UNL     1     -60.482 -50.530 -81.092  0.00  0.00    +0.000 OA
ATOM     24  O   UNL     1     -62.206 -52.275 -80.342  0.00  0.00    +0.000 OA
BRANCH  22  25
ATOM     25  C   UNL     1     -59.677 -52.982 -80.564  0.00  0.00    +0.000 A 
ATOM     26  C   UNL     1     -60.082 -54.216 -81.060  0.00  0.00    +0.000 A 
ATOM     27  C   UNL     1     -59.147 -55.241 -81.176  0.00  0.00    +0.000 A 
ATOM     28  C   UNL     1     -57.830 -55.012 -80.789  0.00  0.00    +0.000 A 
ATOM     29  F   UNL     1     -56.930 -55.999 -80.901  0.00  0.00    +0.000 F 
ATOM     30  C   UNL     1     -57.431 -53.776 -80.286  0.00  0.00    +0.000 A 
ATOM     31  C   UNL     1     -58.363 -52.751 -80.169  0.00  0.00    +0.000 A 
ENDBRANCH  22  25
ENDBRANCH  21  22
ENDBRANCH  17  21
ENDBRANCH   2  17
TORSDOF 8
ENDMDL
MODEL 7
REMARK VINA RESULT:      -5.7     59.297     62.062
REMARK  Name = Bicalutamide.pdbqt.pdb
REMARK  8 active torsions:
REMARK  status: ('A' for Active; 'I' for Inactive)
REMARK    1  A    between atoms: C_2  and  N_13
REMARK    2  A    between atoms: C_5  and  C_9
REMARK    3  A    between atoms: C_6  and  C_8
REMARK    4  A    between atoms: C_14  and  C_17
REMARK    5  A    between atoms: C_17  and  O_19
REMARK    6  A    between atoms: C_17  and  C_21
REMARK    7  A    between atoms: C_21  and  S_22
REMARK    8  A    between atoms: S_22  and  C_25
REMARK                            x       y       z     vdW  Elec       q    Type
REMARK                         _______ _______ _______ _____ _____    ______ ____
ROOT
ATOM      1  N   UNL     1     -64.038 -57.291 -15.458  0.00  0.00    +0.000 N 
ATOM      2  C   UNL     1     -62.722 -56.856 -15.591  0.00  0.00    +0.000 C 
ATOM      3  O   UNL     1     -61.728 -57.520 -15.280  0.00  0.00    +0.000 OA
ATOM      4  H   UNL     1     -64.760 -56.683 -15.847  0.00  0.00    +0.000 HD
ENDROOT
BRANCH   1   5
ATOM      5  C   UNL     1     -64.451 -58.519 -14.917  0.00  0.00    +0.000 A 
ATOM      6  C   UNL     1     -64.703 -58.574 -13.547  0.00  0.00    +0.000 A 
ATOM      7  C   UNL     1     -64.603 -59.671 -15.683  0.00  0.00    +0.000 A 
ATOM      8  C   UNL     1     -65.109 -59.763 -12.930  0.00  0.00    +0.000 A 
ATOM      9  C   UNL     1     -65.260 -60.916 -13.714  0.00  0.00    +0.000 A 
ATOM     10  C   UNL     1     -65.006 -60.863 -15.086  0.00  0.00    +0.000 A 
BRANCH   8  11
ATOM     11  C   UNL     1     -65.367 -59.766 -11.451  0.00  0.00    +0.000 C 
ATOM     12  F   UNL     1     -66.636 -60.143 -11.128  0.00  0.00    +0.000 F 
ATOM     13  F   UNL     1     -64.546 -60.619 -10.785  0.00  0.00    +0.000 F 
ATOM     14  F   UNL     1     -65.191 -58.541 -10.891  0.00  0.00    +0.000 F 
ENDBRANCH   8  11
BRANCH   9  16
ATOM     15  N   UNL     1     -66.012 -63.188 -12.720  0.00  0.00    +0.000 NA
ATOM     16  C   UNL     1     -65.672 -62.169 -13.158  0.00  0.00    +0.000 C 
ENDBRANCH   9  16
ENDBRANCH   1   5
BRANCH   2  17
ATOM     17  C   UNL     1     -62.551 -55.383 -16.145  0.00  0.00    +0.000 C 
ATOM     18  C   UNL     1     -62.146 -55.387 -17.646  0.00  0.00    +0.000 C 
BRANCH  17  19
ATOM     19  O   UNL     1     -61.524 -54.708 -15.437  0.00  0.00    +0.000 OA
ATOM     20  H   UNL     1     -61.447 -53.842 -15.881  0.00  0.00    +0.000 HD
ENDBRANCH  17  19
BRANCH  17  21
ATOM     21  C   UNL     1     -63.785 -54.688 -15.947  0.00  0.00    +0.000 C 
BRANCH  21  22
ATOM     22  S   UNL     1     -65.286 -53.957 -15.513  0.00  0.00    +0.000 S 
ATOM     23  O   UNL     1     -64.833 -53.256 -14.338  0.00  0.00    +0.000 OA
ATOM     24  O   UNL     1     -66.069 -55.169 -15.519  0.00  0.00    +0.000 OA
BRANCH  22  25
ATOM     25  C   UNL     1     -65.774 -52.868 -16.767  0.00  0.00    +0.000 A 
ATOM     26  C   UNL     1     -66.122 -51.569 -16.409  0.00  0.00    +0.000 A 
ATOM     27  C   UNL     1     -66.539 -50.681 -17.397  0.00  0.00    +0.000 A 
ATOM     28  C   UNL     1     -66.605 -51.111 -18.719  0.00  0.00    +0.000 A 
ATOM     29  F   UNL     1     -67.007 -50.256 -19.669  0.00  0.00    +0.000 F 
ATOM     30  C   UNL     1     -66.263 -52.414 -19.072  0.00  0.00    +0.000 A 
ATOM     31  C   UNL     1     -65.846 -53.303 -18.087  0.00  0.00    +0.000 A 
ENDBRANCH  22  25
ENDBRANCH  21  22
ENDBRANCH  17  21
ENDBRANCH   2  17
TORSDOF 8
ENDMDL
MODEL 8
REMARK VINA RESULT:      -5.6     14.382     16.544
REMARK  Name = Bicalutamide.pdbqt.pdb
REMARK  8 active torsions:
REMARK  status: ('A' for Active; 'I' for Inactive)
REMARK    1  A    between atoms: C_2  and  N_13
REMARK    2  A    between atoms: C_5  and  C_9
REMARK    3  A    between atoms: C_6  and  C_8
REMARK    4  A    between atoms: C_14  and  C_17
REMARK    5  A    between atoms: C_17  and  O_19
REMARK    6  A    between atoms: C_17  and  C_21
REMARK    7  A    between atoms: C_21  and  S_22
REMARK    8  A    between atoms: S_22  and  C_25
REMARK                            x       y       z     vdW  Elec       q    Type
REMARK                         _______ _______ _______ _____ _____    ______ ____
ROOT
ATOM      1  N   UNL     1     -57.169 -58.459 -61.788  0.00  0.00    +0.000 N 
ATOM      2  C   UNL     1     -55.863 -58.405 -61.307  0.00  0.00    +0.000 C 
ATOM      3  O   UNL     1     -55.550 -58.073 -60.160  0.00  0.00    +0.000 OA
ATOM      4  H   UNL     1     -57.294 -58.847 -62.724  0.00  0.00    +0.000 HD
ENDROOT
BRANCH   1   5
ATOM      5  C   UNL     1     -58.326 -58.109 -61.073  0.00  0.00    +0.000 A 
ATOM      6  C   UNL     1     -58.550 -56.756 -60.822  0.00  0.00    +0.000 A 
ATOM      7  C   UNL     1     -59.238 -59.048 -60.602  0.00  0.00    +0.000 A 
ATOM      8  C   UNL     1     -59.675 -56.326 -60.109  0.00  0.00    +0.000 A 
ATOM      9  C   UNL     1     -60.588 -57.283 -59.641  0.00  0.00    +0.000 A 
ATOM     10  C   UNL     1     -60.363 -58.638 -59.891  0.00  0.00    +0.000 A 
BRANCH   8  11
ATOM     11  C   UNL     1     -59.868 -54.857 -59.867  0.00  0.00    +0.000 C 
ATOM     12  F   UNL     1     -58.890 -54.088 -60.421  0.00  0.00    +0.000 F 
ATOM     13  F   UNL     1     -61.038 -54.397 -60.382  0.00  0.00    +0.000 F 
ATOM     14  F   UNL     1     -59.878 -54.546 -58.544  0.00  0.00    +0.000 F 
ENDBRANCH   8  11
BRANCH   9  16
ATOM     15  N   UNL     1     -62.720 -56.642 -58.317  0.00  0.00    +0.000 NA
ATOM     16  C   UNL     1     -61.762 -56.924 -58.905  0.00  0.00    +0.000 C 
ENDBRANCH   9  16
ENDBRANCH   1   5
BRANCH   2  17
ATOM     17  C   UNL     1     -54.740 -58.765 -62.363  0.00  0.00    +0.000 C 
ATOM     18  C   UNL     1     -53.911 -59.999 -61.909  0.00  0.00    +0.000 C 
BRANCH  17  19
ATOM     19  O   UNL     1     -53.835 -57.682 -62.507  0.00  0.00    +0.000 OA
ATOM     20  H   UNL     1     -54.053 -57.079 -61.770  0.00  0.00    +0.000 HD
ENDBRANCH  17  19
BRANCH  17  21
ATOM     21  C   UNL     1     -55.376 -59.008 -63.622  0.00  0.00    +0.000 C 
BRANCH  21  22
ATOM     22  S   UNL     1     -56.088 -59.515 -65.109  0.00  0.00    +0.000 S 
ATOM     23  O   UNL     1     -57.462 -59.238 -64.776  0.00  0.00    +0.000 OA
ATOM     24  O   UNL     1     -55.480 -60.823 -65.147  0.00  0.00    +0.000 OA
BRANCH  22  25
ATOM     25  C   UNL     1     -55.516 -58.500 -66.390  0.00  0.00    +0.000 A 
ATOM     26  C   UNL     1     -54.482 -57.613 -66.112  0.00  0.00    +0.000 A 
ATOM     27  C   UNL     1     -54.021 -56.771 -67.120  0.00  0.00    +0.000 A 
ATOM     28  C   UNL     1     -54.606 -56.829 -68.382  0.00  0.00    +0.000 A 
ATOM     29  F   UNL     1     -54.161 -56.018 -69.351  0.00  0.00    +0.000 F 
ATOM     30  C   UNL     1     -55.646 -57.714 -68.654  0.00  0.00    +0.000 A 
ATOM     31  C   UNL     1     -56.108 -58.557 -67.648  0.00  0.00    +0.000 A 
ENDBRANCH  22  25
ENDBRANCH  21  22
ENDBRANCH  17  21
ENDBRANCH   2  17
TORSDOF 8
ENDMDL
MODEL 9
REMARK VINA RESULT:      -5.6     21.810     24.565
REMARK  Name = Bicalutamide.pdbqt.pdb
REMARK  8 active torsions:
REMARK  status: ('A' for Active; 'I' for Inactive)
REMARK    1  A    between atoms: C_2  and  N_13
REMARK    2  A    between atoms: C_5  and  C_9
REMARK    3  A    between atoms: C_6  and  C_8
REMARK    4  A    between atoms: C_14  and  C_17
REMARK    5  A    between atoms: C_17  and  O_19
REMARK    6  A    between atoms: C_17  and  C_21
REMARK    7  A    between atoms: C_21  and  S_22
REMARK    8  A    between atoms: S_22  and  C_25
REMARK                            x       y       z     vdW  Elec       q    Type
REMARK                         _______ _______ _______ _____ _____    ______ ____
ROOT
ATOM      1  N   UNL     1     -64.073 -46.145 -57.137  0.00  0.00    +0.000 N 
ATOM      2  C   UNL     1     -63.005 -46.282 -58.021  0.00  0.00    +0.000 C 
ATOM      3  O   UNL     1     -61.833 -46.476 -57.681  0.00  0.00    +0.000 OA
ATOM      4  H   UNL     1     -65.003 -46.091 -57.553  0.00  0.00    +0.000 HD
ENDROOT
BRANCH   1   5
ATOM      5  C   UNL     1     -63.991 -46.161 -55.736  0.00  0.00    +0.000 A 
ATOM      6  C   UNL     1     -64.369 -47.329 -55.075  0.00  0.00    +0.000 A 
ATOM      7  C   UNL     1     -63.566 -45.066 -54.990  0.00  0.00    +0.000 A 
ATOM      8  C   UNL     1     -64.326 -47.422 -53.679  0.00  0.00    +0.000 A 
ATOM      9  C   UNL     1     -63.893 -46.311 -52.940  0.00  0.00    +0.000 A 
ATOM     10  C   UNL     1     -63.517 -45.140 -53.600  0.00  0.00    +0.000 A 
BRANCH   8  11
ATOM     11  C   UNL     1     -64.743 -48.704 -53.020  0.00  0.00    +0.000 C 
ATOM     12  F   UNL     1     -65.271 -49.609 -53.890  0.00  0.00    +0.000 F 
ATOM     13  F   UNL     1     -63.704 -49.335 -52.413  0.00  0.00    +0.000 F 
ATOM     14  F   UNL     1     -65.691 -48.512 -52.065  0.00  0.00    +0.000 F 
ENDBRANCH   8  11
BRANCH   9  16
ATOM     15  N   UNL     1     -63.766 -46.325 -50.352  0.00  0.00    +0.000 NA
ATOM     16  C   UNL     1     -63.820 -46.327 -51.510  0.00  0.00    +0.000 C 
ENDBRANCH   9  16
ENDBRANCH   1   5
BRANCH   2  17
ATOM     17  C   UNL     1     -63.372 -46.127 -59.552  0.00  0.00    +0.000 C 
ATOM     18  C   UNL     1     -62.432 -46.982 -60.448  0.00  0.00    +0.000 C 
BRANCH  17  19
ATOM     19  O   UNL     1     -63.224 -44.777 -59.959  0.00  0.00    +0.000 OA
ATOM     20  H   UNL     1     -63.933 -44.638 -60.616  0.00  0.00    +0.000 HD
ENDBRANCH  17  19
BRANCH  17  21
ATOM     21  C   UNL     1     -64.738 -46.516 -59.723  0.00  0.00    +0.000 C 
BRANCH  21  22
ATOM     22  S   UNL     1     -66.430 -46.849 -59.758  0.00  0.00    +0.000 S 
ATOM     23  O   UNL     1     -66.382 -48.037 -60.572  0.00  0.00    +0.000 OA
ATOM     24  O   UNL     1     -66.847 -45.541 -60.203  0.00  0.00    +0.000 OA
BRANCH  22  25
ATOM     25  C   UNL     1     -66.978 -47.188 -58.151  0.00  0.00    +0.000 A 
ATOM     26  C   UNL     1     -66.970 -48.511 -57.722  0.00  0.00    +0.000 A 
ATOM     27  C   UNL     1     -67.428 -48.813 -56.442  0.00  0.00    +0.000 A 
ATOM     28  C   UNL     1     -67.888 -47.787 -55.621  0.00  0.00    +0.000 A 
ATOM     29  F   UNL     1     -68.328 -48.077 -54.389  0.00  0.00    +0.000 F 
ATOM     30  C   UNL     1     -67.900 -46.465 -56.057  0.00  0.00    +0.000 A 
ATOM     31  C   UNL     1     -67.444 -46.162 -57.336  0.00  0.00    +0.000 A 
ENDBRANCH  22  25
ENDBRANCH  21  22
ENDBRANCH  17  21
ENDBRANCH   2  17
TORSDOF 8
ENDMDL
