MODEL 1
REMARK VINA RESULT:      -5.2      0.000      0.000
REMARK  Name = Bisphenol_A.pdbqt.pdb
REMARK  4 active torsions:
REMARK  status: ('A' for Active; 'I' for Inactive)
REMARK    1  A    between atoms: C_1  and  C_4
REMARK    2  A    between atoms: C_1  and  C_12
REMARK    3  A    between atoms: C_7  and  O_10
REMARK    4  A    between atoms: C_15  and  O_18
REMARK                            x       y       z     vdW  Elec       q    Type
REMARK                         _______ _______ _______ _____ _____    ______ ____
ROOT
ATOM      1  C   UNL     1     -51.391 -56.900 -70.327  0.00  0.00    +0.000 C 
ATOM      2  C   UNL     1     -50.856 -58.264 -70.893  0.00  0.00    +0.000 C 
ATOM      3  C   UNL     1     -50.543 -56.533 -69.058  0.00  0.00    +0.000 C 
ENDROOT
BRANCH   1   4
ATOM      4  C   UNL     1     -51.224 -55.859 -71.443  0.00  0.00    +0.000 A 
ATOM      5  C   UNL     1     -51.072 -54.499 -71.118  0.00  0.00    +0.000 A 
ATOM      6  C   UNL     1     -50.937 -53.526 -72.106  0.00  0.00    +0.000 A 
ATOM      7  C   UNL     1     -50.958 -53.907 -73.442  0.00  0.00    +0.000 A 
ATOM      8  C   UNL     1     -51.114 -55.240 -73.800  0.00  0.00    +0.000 A 
ATOM      9  C   UNL     1     -51.252 -56.204 -72.802  0.00  0.00    +0.000 A 
BRANCH   7  10
ATOM     10  O   UNL     1     -50.824 -52.981 -74.434  0.00  0.00    +0.000 OA
ATOM     11  H   UNL     1     -49.920 -53.038 -74.791  0.00  0.00    +0.000 HD
ENDBRANCH   7  10
ENDBRANCH   1   4
BRANCH   1  12
ATOM     12  C   UNL     1     -52.853 -57.007 -69.868  0.00  0.00    +0.000 A 
ATOM     13  C   UNL     1     -53.768 -57.777 -70.609  0.00  0.00    +0.000 A 
ATOM     14  C   UNL     1     -55.104 -57.881 -70.231  0.00  0.00    +0.000 A 
ATOM     15  C   UNL     1     -55.544 -57.206 -69.099  0.00  0.00    +0.000 A 
ATOM     16  C   UNL     1     -54.670 -56.431 -68.347  0.00  0.00    +0.000 A 
ATOM     17  C   UNL     1     -53.336 -56.332 -68.737  0.00  0.00    +0.000 A 
BRANCH  15  18
ATOM     18  O   UNL     1     -56.845 -57.290 -68.697  0.00  0.00    +0.000 OA
ATOM     19  H   UNL     1     -57.067 -58.228 -68.563  0.00  0.00    +0.000 HD
ENDBRANCH  15  18
ENDBRANCH   1  12
TORSDOF 4
ENDMDL
MODEL 2
REMARK VINA RESULT:      -5.2     17.477     20.125
REMARK  Name = Bisphenol_A.pdbqt.pdb
REMARK  4 active torsions:
REMARK  status: ('A' for Active; 'I' for Inactive)
REMARK    1  A    between atoms: C_1  and  C_4
REMARK    2  A    between atoms: C_1  and  C_12
REMARK    3  A    between atoms: C_7  and  O_10
REMARK    4  A    between atoms: C_15  and  O_18
REMARK                            x       y       z     vdW  Elec       q    Type
REMARK                         _______ _______ _______ _____ _____    ______ ____
ROOT
ATOM      1  C   UNL     1     -66.050 -46.681 -58.711  0.00  0.00    +0.000 C 
ATOM      2  C   UNL     1     -66.586 -48.154 -58.630  0.00  0.00    +0.000 C 
ATOM      3  C   UNL     1     -66.178 -46.036 -57.285  0.00  0.00    +0.000 C 
ENDROOT
BRANCH   1   4
ATOM      4  C   UNL     1     -64.585 -46.765 -59.168  0.00  0.00    +0.000 A 
ATOM      5  C   UNL     1     -63.560 -46.295 -58.327  0.00  0.00    +0.000 A 
ATOM      6  C   UNL     1     -62.223 -46.339 -58.716  0.00  0.00    +0.000 A 
ATOM      7  C   UNL     1     -61.896 -46.854 -59.965  0.00  0.00    +0.000 A 
ATOM      8  C   UNL     1     -62.883 -47.321 -60.824  0.00  0.00    +0.000 A 
ATOM      9  C   UNL     1     -64.217 -47.268 -60.424  0.00  0.00    +0.000 A 
BRANCH   7  10
ATOM     10  O   UNL     1     -60.597 -46.917 -60.375  0.00  0.00    +0.000 OA
ATOM     11  H   UNL     1     -60.283 -46.013 -60.550  0.00  0.00    +0.000 HD
ENDBRANCH   7  10
ENDBRANCH   1   4
BRANCH   1  12
ATOM     12  C   UNL     1     -66.889 -45.819 -59.665  0.00  0.00    +0.000 A 
ATOM     13  C   UNL     1     -68.062 -46.344 -60.239  0.00  0.00    +0.000 A 
ATOM     14  C   UNL     1     -68.837 -45.596 -61.121  0.00  0.00    +0.000 A 
ATOM     15  C   UNL     1     -68.442 -44.304 -61.446  0.00  0.00    +0.000 A 
ATOM     16  C   UNL     1     -67.286 -43.756 -60.904  0.00  0.00    +0.000 A 
ATOM     17  C   UNL     1     -66.517 -44.515 -60.025  0.00  0.00    +0.000 A 
BRANCH  15  18
ATOM     18  O   UNL     1     -69.180 -43.542 -62.303  0.00  0.00    +0.000 OA
ATOM     19  H   UNL     1     -69.091 -43.909 -63.200  0.00  0.00    +0.000 HD
ENDBRANCH  15  18
ENDBRANCH   1  12
TORSDOF 4
ENDMDL
MODEL 3
REMARK VINA RESULT:      -5.2     17.489     20.422
REMARK  Name = Bisphenol_A.pdbqt.pdb
REMARK  4 active torsions:
REMARK  status: ('A' for Active; 'I' for Inactive)
REMARK    1  A    between atoms: C_1  and  C_4
REMARK    2  A    between atoms: C_1  and  C_12
REMARK    3  A    between atoms: C_7  and  O_10
REMARK    4  A    between atoms: C_15  and  O_18
REMARK                            x       y       z     vdW  Elec       q    Type
REMARK                         _______ _______ _______ _____ _____    ______ ____
ROOT
ATOM      1  C   UNL     1     -66.060 -46.666 -58.697  0.00  0.00    +0.000 C 
ATOM      2  C   UNL     1     -66.182 -46.009 -57.276  0.00  0.00    +0.000 C 
ATOM      3  C   UNL     1     -66.597 -48.138 -58.600  0.00  0.00    +0.000 C 
ENDROOT
BRANCH   1   4
ATOM      4  C   UNL     1     -66.905 -45.814 -59.655  0.00  0.00    +0.000 A 
ATOM      5  C   UNL     1     -68.067 -46.354 -60.236  0.00  0.00    +0.000 A 
ATOM      6  C   UNL     1     -68.847 -45.615 -61.124  0.00  0.00    +0.000 A 
ATOM      7  C   UNL     1     -68.465 -44.319 -61.446  0.00  0.00    +0.000 A 
ATOM      8  C   UNL     1     -67.319 -43.756 -60.898  0.00  0.00    +0.000 A 
ATOM      9  C   UNL     1     -66.546 -44.506 -60.013  0.00  0.00    +0.000 A 
BRANCH   7  10
ATOM     10  O   UNL     1     -69.207 -43.567 -62.308  0.00  0.00    +0.000 OA
ATOM     11  H   UNL     1     -69.762 -42.958 -61.790  0.00  0.00    +0.000 HD
ENDBRANCH   7  10
ENDBRANCH   1   4
BRANCH   1  12
ATOM     12  C   UNL     1     -64.599 -46.756 -59.160  0.00  0.00    +0.000 A 
ATOM     13  C   UNL     1     -63.566 -46.293 -58.324  0.00  0.00    +0.000 A 
ATOM     14  C   UNL     1     -62.232 -46.344 -58.720  0.00  0.00    +0.000 A 
ATOM     15  C   UNL     1     -61.914 -46.859 -59.971  0.00  0.00    +0.000 A 
ATOM     16  C   UNL     1     -62.909 -47.319 -60.825  0.00  0.00    +0.000 A 
ATOM     17  C   UNL     1     -64.240 -47.260 -60.419  0.00  0.00    +0.000 A 
BRANCH  15  18
ATOM     18  O   UNL     1     -60.618 -46.929 -60.388  0.00  0.00    +0.000 OA
ATOM     19  H   UNL     1     -60.299 -46.026 -60.561  0.00  0.00    +0.000 HD
ENDBRANCH  15  18
ENDBRANCH   1  12
TORSDOF 4
ENDMDL
MODEL 4
REMARK VINA RESULT:      -5.2      0.096      5.680
REMARK  Name = Bisphenol_A.pdbqt.pdb
REMARK  4 active torsions:
REMARK  status: ('A' for Active; 'I' for Inactive)
REMARK    1  A    between atoms: C_1  and  C_4
REMARK    2  A    between atoms: C_1  and  C_12
REMARK    3  A    between atoms: C_7  and  O_10
REMARK    4  A    between atoms: C_15  and  O_18
REMARK                            x       y       z     vdW  Elec       q    Type
REMARK                         _______ _______ _______ _____ _____    ______ ____
ROOT
ATOM      1  C   UNL     1     -51.437 -56.995 -70.299  0.00  0.00    +0.000 C 
ATOM      2  C   UNL     1     -50.582 -56.664 -69.025  0.00  0.00    +0.000 C 
ATOM      3  C   UNL     1     -50.930 -58.361 -70.885  0.00  0.00    +0.000 C 
ENDROOT
BRANCH   1   4
ATOM      4  C   UNL     1     -52.901 -57.081 -69.843  0.00  0.00    +0.000 A 
ATOM      5  C   UNL     1     -53.833 -57.808 -70.605  0.00  0.00    +0.000 A 
ATOM      6  C   UNL     1     -55.172 -57.892 -70.230  0.00  0.00    +0.000 A 
ATOM      7  C   UNL     1     -55.598 -57.238 -69.080  0.00  0.00    +0.000 A 
ATOM      8  C   UNL     1     -54.706 -56.503 -68.308  0.00  0.00    +0.000 A 
ATOM      9  C   UNL     1     -53.370 -56.425 -68.695  0.00  0.00    +0.000 A 
BRANCH   7  10
ATOM     10  O   UNL     1     -56.900 -57.302 -68.682  0.00  0.00    +0.000 OA
ATOM     11  H   UNL     1     -57.256 -56.398 -68.637  0.00  0.00    +0.000 HD
ENDBRANCH   7  10
ENDBRANCH   1   4
BRANCH   1  12
ATOM     12  C   UNL     1     -51.250 -55.943 -71.401  0.00  0.00    +0.000 A 
ATOM     13  C   UNL     1     -51.104 -54.585 -71.060  0.00  0.00    +0.000 A 
ATOM     14  C   UNL     1     -50.951 -53.603 -72.035  0.00  0.00    +0.000 A 
ATOM     15  C   UNL     1     -50.946 -53.971 -73.375  0.00  0.00    +0.000 A 
ATOM     16  C   UNL     1     -51.094 -55.301 -73.749  0.00  0.00    +0.000 A 
ATOM     17  C   UNL     1     -51.250 -56.274 -72.765  0.00  0.00    +0.000 A 
BRANCH  15  18
ATOM     18  O   UNL     1     -50.791 -53.035 -74.355  0.00  0.00    +0.000 OA
ATOM     19  H   UNL     1     -50.948 -52.155 -73.970  0.00  0.00    +0.000 HD
ENDBRANCH  15  18
ENDBRANCH   1  12
TORSDOF 4
ENDMDL
MODEL 5
REMARK VINA RESULT:      -5.1     17.580     21.001
REMARK  Name = Bisphenol_A.pdbqt.pdb
REMARK  4 active torsions:
REMARK  status: ('A' for Active; 'I' for Inactive)
REMARK    1  A    between atoms: C_1  and  C_4
REMARK    2  A    between atoms: C_1  and  C_12
REMARK    3  A    between atoms: C_7  and  O_10
REMARK    4  A    between atoms: C_15  and  O_18
REMARK                            x       y       z     vdW  Elec       q    Type
REMARK                         _______ _______ _______ _____ _____    ______ ____
ROOT
ATOM      1  C   UNL     1     -65.509 -46.055 -57.548  0.00  0.00    +0.000 C 
ATOM      2  C   UNL     1     -66.651 -45.499 -58.470  0.00  0.00    +0.000 C 
ATOM      3  C   UNL     1     -65.155 -44.950 -56.491  0.00  0.00    +0.000 C 
ENDROOT
BRANCH   1   4
ATOM      4  C   UNL     1     -66.054 -47.327 -56.881  0.00  0.00    +0.000 A 
ATOM      5  C   UNL     1     -65.585 -47.711 -55.612  0.00  0.00    +0.000 A 
ATOM      6  C   UNL     1     -66.045 -48.868 -54.986  0.00  0.00    +0.000 A 
ATOM      7  C   UNL     1     -66.984 -49.662 -55.633  0.00  0.00    +0.000 A 
ATOM      8  C   UNL     1     -67.463 -49.318 -56.890  0.00  0.00    +0.000 A 
ATOM      9  C   UNL     1     -66.994 -48.160 -57.507  0.00  0.00    +0.000 A 
BRANCH   7  10
ATOM     10  O   UNL     1     -67.459 -50.798 -55.047  0.00  0.00    +0.000 OA
ATOM     11  H   UNL     1     -67.547 -50.641 -54.091  0.00  0.00    +0.000 HD
ENDBRANCH   7  10
ENDBRANCH   1   4
BRANCH   1  12
ATOM     12  C   UNL     1     -64.224 -46.340 -58.340  0.00  0.00    +0.000 A 
ATOM     13  C   UNL     1     -62.969 -46.191 -57.721  0.00  0.00    +0.000 A 
ATOM     14  C   UNL     1     -61.784 -46.424 -58.414  0.00  0.00    +0.000 A 
ATOM     15  C   UNL     1     -61.842 -46.807 -59.749  0.00  0.00    +0.000 A 
ATOM     16  C   UNL     1     -63.064 -46.958 -60.394  0.00  0.00    +0.000 A 
ATOM     17  C   UNL     1     -64.242 -46.719 -59.690  0.00  0.00    +0.000 A 
BRANCH  15  18
ATOM     18  O   UNL     1     -60.702 -47.049 -60.456  0.00  0.00    +0.000 OA
ATOM     19  H   UNL     1     -60.920 -47.629 -61.207  0.00  0.00    +0.000 HD
ENDBRANCH  15  18
ENDBRANCH   1  12
TORSDOF 4
ENDMDL
MODEL 6
REMARK VINA RESULT:      -5.1     17.424     20.132
REMARK  Name = Bisphenol_A.pdbqt.pdb
REMARK  4 active torsions:
REMARK  status: ('A' for Active; 'I' for Inactive)
REMARK    1  A    between atoms: C_1  and  C_4
REMARK    2  A    between atoms: C_1  and  C_12
REMARK    3  A    between atoms: C_7  and  O_10
REMARK    4  A    between atoms: C_15  and  O_18
REMARK                            x       y       z     vdW  Elec       q    Type
REMARK                         _______ _______ _______ _____ _____    ______ ____
ROOT
ATOM      1  C   UNL     1     -65.912 -46.375 -58.392  0.00  0.00    +0.000 C 
ATOM      2  C   UNL     1     -65.967 -44.941 -57.757  0.00  0.00    +0.000 C 
ATOM      3  C   UNL     1     -66.995 -46.448 -59.526  0.00  0.00    +0.000 C 
ENDROOT
BRANCH   1   4
ATOM      4  C   UNL     1     -64.492 -46.561 -58.948  0.00  0.00    +0.000 A 
ATOM      5  C   UNL     1     -63.381 -46.167 -58.181  0.00  0.00    +0.000 A 
ATOM      6  C   UNL     1     -62.080 -46.304 -58.661  0.00  0.00    +0.000 A 
ATOM      7  C   UNL     1     -61.877 -46.838 -59.928  0.00  0.00    +0.000 A 
ATOM      8  C   UNL     1     -62.952 -47.231 -60.716  0.00  0.00    +0.000 A 
ATOM      9  C   UNL     1     -64.248 -47.085 -60.225  0.00  0.00    +0.000 A 
BRANCH   7  10
ATOM     10  O   UNL     1     -60.618 -46.990 -60.428  0.00  0.00    +0.000 OA
ATOM     11  H   UNL     1     -59.979 -46.694 -59.756  0.00  0.00    +0.000 HD
ENDBRANCH   7  10
ENDBRANCH   1   4
BRANCH   1  12
ATOM     12  C   UNL     1     -66.266 -47.466 -57.370  0.00  0.00    +0.000 A 
ATOM     13  C   UNL     1     -67.182 -48.477 -57.710  0.00  0.00    +0.000 A 
ATOM     14  C   UNL     1     -67.539 -49.471 -56.802  0.00  0.00    +0.000 A 
ATOM     15  C   UNL     1     -66.980 -49.461 -55.530  0.00  0.00    +0.000 A 
ATOM     16  C   UNL     1     -66.076 -48.473 -55.157  0.00  0.00    +0.000 A 
ATOM     17  C   UNL     1     -65.730 -47.483 -56.074  0.00  0.00    +0.000 A 
BRANCH  15  18
ATOM     18  O   UNL     1     -67.302 -50.422 -54.618  0.00  0.00    +0.000 OA
ATOM     19  H   UNL     1     -68.263 -50.568 -54.649  0.00  0.00    +0.000 HD
ENDBRANCH  15  18
ENDBRANCH   1  12
TORSDOF 4
ENDMDL
MODEL 7
REMARK VINA RESULT:      -4.8     13.159     15.574
REMARK  Name = Bisphenol_A.pdbqt.pdb
REMARK  4 active torsions:
REMARK  status: ('A' for Active; 'I' for Inactive)
REMARK    1  A    between atoms: C_1  and  C_4
REMARK    2  A    between atoms: C_1  and  C_12
REMARK    3  A    between atoms: C_7  and  O_10
REMARK    4  A    between atoms: C_15  and  O_18
REMARK                            x       y       z     vdW  Elec       q    Type
REMARK                         _______ _______ _______ _____ _____    ______ ____
ROOT
ATOM      1  C   UNL     1     -66.046 -61.004 -76.812  0.00  0.00    +0.000 C 
ATOM      2  C   UNL     1     -65.510 -62.471 -76.652  0.00  0.00    +0.000 C 
ATOM      3  C   UNL     1     -67.341 -61.054 -77.698  0.00  0.00    +0.000 C 
ENDROOT
BRANCH   1   4
ATOM      4  C   UNL     1     -66.343 -60.482 -75.399  0.00  0.00    +0.000 A 
ATOM      5  C   UNL     1     -67.287 -59.456 -75.213  0.00  0.00    +0.000 A 
ATOM      6  C   UNL     1     -67.568 -58.947 -73.947  0.00  0.00    +0.000 A 
ATOM      7  C   UNL     1     -66.897 -59.460 -72.844  0.00  0.00    +0.000 A 
ATOM      8  C   UNL     1     -65.952 -60.468 -72.991  0.00  0.00    +0.000 A 
ATOM      9  C   UNL     1     -65.678 -60.967 -74.263  0.00  0.00    +0.000 A 
BRANCH   7  10
ATOM     10  O   UNL     1     -67.150 -58.987 -71.591  0.00  0.00    +0.000 OA
ATOM     11  H   UNL     1     -67.796 -58.263 -71.657  0.00  0.00    +0.000 HD
ENDBRANCH   7  10
ENDBRANCH   1   4
BRANCH   1  12
ATOM     12  C   UNL     1     -65.040 -60.106 -77.546  0.00  0.00    +0.000 A 
ATOM     13  C   UNL     1     -63.665 -60.217 -77.269  0.00  0.00    +0.000 A 
ATOM     14  C   UNL     1     -62.728 -59.406 -77.903  0.00  0.00    +0.000 A 
ATOM     15  C   UNL     1     -63.161 -58.462 -78.827  0.00  0.00    +0.000 A 
ATOM     16  C   UNL     1     -64.511 -58.320 -79.121  0.00  0.00    +0.000 A 
ATOM     17  C   UNL     1     -65.440 -59.136 -78.478  0.00  0.00    +0.000 A 
BRANCH  15  18
ATOM     18  O   UNL     1     -62.269 -57.656 -79.471  0.00  0.00    +0.000 OA
ATOM     19  H   UNL     1     -61.835 -58.172 -80.173  0.00  0.00    +0.000 HD
ENDBRANCH  15  18
ENDBRANCH   1  12
TORSDOF 4
ENDMDL
MODEL 8
REMARK VINA RESULT:      -4.7     11.621     14.938
REMARK  Name = Bisphenol_A.pdbqt.pdb
REMARK  4 active torsions:
REMARK  status: ('A' for Active; 'I' for Inactive)
REMARK    1  A    between atoms: C_1  and  C_4
REMARK    2  A    between atoms: C_1  and  C_12
REMARK    3  A    between atoms: C_7  and  O_10
REMARK    4  A    between atoms: C_15  and  O_18
REMARK                            x       y       z     vdW  Elec       q    Type
REMARK                         _______ _______ _______ _____ _____    ______ ____
ROOT
ATOM      1  C   UNL     1     -60.138 -55.296 -59.923  0.00  0.00    +0.000 C 
ATOM      2  C   UNL     1     -61.111 -54.785 -61.045  0.00  0.00    +0.000 C 
ATOM      3  C   UNL     1     -59.128 -54.141 -59.592  0.00  0.00    +0.000 C 
ENDROOT
BRANCH   1   4
ATOM      4  C   UNL     1     -61.008 -55.656 -58.710  0.00  0.00    +0.000 A 
ATOM      5  C   UNL     1     -60.470 -55.580 -57.413  0.00  0.00    +0.000 A 
ATOM      6  C   UNL     1     -61.225 -55.916 -56.291  0.00  0.00    +0.000 A 
ATOM      7  C   UNL     1     -62.536 -56.343 -56.458  0.00  0.00    +0.000 A 
ATOM      8  C   UNL     1     -63.098 -56.438 -57.726  0.00  0.00    +0.000 A 
ATOM      9  C   UNL     1     -62.332 -56.101 -58.840  0.00  0.00    +0.000 A 
BRANCH   7  10
ATOM     10  O   UNL     1     -63.305 -56.676 -55.382  0.00  0.00    +0.000 OA
ATOM     11  H   UNL     1     -62.782 -57.246 -54.793  0.00  0.00    +0.000 HD
ENDBRANCH   7  10
ENDBRANCH   1   4
BRANCH   1  12
ATOM     12  C   UNL     1     -59.303 -56.495 -60.395  0.00  0.00    +0.000 A 
ATOM     13  C   UNL     1     -59.943 -57.652 -60.876  0.00  0.00    +0.000 A 
ATOM     14  C   UNL     1     -59.216 -58.764 -61.295  0.00  0.00    +0.000 A 
ATOM     15  C   UNL     1     -57.829 -58.731 -61.234  0.00  0.00    +0.000 A 
ATOM     16  C   UNL     1     -57.163 -57.607 -60.758  0.00  0.00    +0.000 A 
ATOM     17  C   UNL     1     -57.901 -56.503 -60.339  0.00  0.00    +0.000 A 
BRANCH  15  18
ATOM     18  O   UNL     1     -57.086 -59.799 -61.642  0.00  0.00    +0.000 OA
ATOM     19  H   UNL     1     -56.264 -59.469 -62.044  0.00  0.00    +0.000 HD
ENDBRANCH  15  18
ENDBRANCH   1  12
TORSDOF 4
ENDMDL
MODEL 9
REMARK VINA RESULT:      -4.7     11.617     14.343
REMARK  Name = Bisphenol_A.pdbqt.pdb
REMARK  4 active torsions:
REMARK  status: ('A' for Active; 'I' for Inactive)
REMARK    1  A    between atoms: C_1  and  C_4
REMARK    2  A    between atoms: C_1  and  C_12
REMARK    3  A    between atoms: C_7  and  O_10
REMARK    4  A    between atoms: C_15  and  O_18
REMARK                            x       y       z     vdW  Elec       q    Type
REMARK                         _______ _______ _______ _____ _____    ______ ____
ROOT
ATOM      1  C   UNL     1     -60.135 -55.298 -59.920  0.00  0.00    +0.000 C 
ATOM      2  C   UNL     1     -59.123 -54.144 -59.590  0.00  0.00    +0.000 C 
ATOM      3  C   UNL     1     -61.110 -54.786 -61.039  0.00  0.00    +0.000 C 
ENDROOT
BRANCH   1   4
ATOM      4  C   UNL     1     -59.302 -56.497 -60.398  0.00  0.00    +0.000 A 
ATOM      5  C   UNL     1     -59.945 -57.651 -60.882  0.00  0.00    +0.000 A 
ATOM      6  C   UNL     1     -59.221 -58.763 -61.306  0.00  0.00    +0.000 A 
ATOM      7  C   UNL     1     -57.833 -58.734 -61.244  0.00  0.00    +0.000 A 
ATOM      8  C   UNL     1     -57.165 -57.614 -60.764  0.00  0.00    +0.000 A 
ATOM      9  C   UNL     1     -57.901 -56.509 -60.340  0.00  0.00    +0.000 A 
BRANCH   7  10
ATOM     10  O   UNL     1     -57.093 -59.803 -61.655  0.00  0.00    +0.000 OA
ATOM     11  H   UNL     1     -56.164 -59.650 -61.410  0.00  0.00    +0.000 HD
ENDBRANCH   7  10
ENDBRANCH   1   4
BRANCH   1  12
ATOM     12  C   UNL     1     -61.002 -55.661 -58.707  0.00  0.00    +0.000 A 
ATOM     13  C   UNL     1     -60.462 -55.591 -57.409  0.00  0.00    +0.000 A 
ATOM     14  C   UNL     1     -61.215 -55.930 -56.289  0.00  0.00    +0.000 A 
ATOM     15  C   UNL     1     -62.529 -56.351 -56.455  0.00  0.00    +0.000 A 
ATOM     16  C   UNL     1     -63.094 -56.439 -57.721  0.00  0.00    +0.000 A 
ATOM     17  C   UNL     1     -62.329 -56.100 -58.836  0.00  0.00    +0.000 A 
BRANCH  15  18
ATOM     18  O   UNL     1     -63.297 -56.684 -55.378  0.00  0.00    +0.000 OA
ATOM     19  H   UNL     1     -63.846 -57.452 -55.616  0.00  0.00    +0.000 HD
ENDBRANCH  15  18
ENDBRANCH   1  12
TORSDOF 4
ENDMDL
