MODEL 1
REMARK VINA RESULT:      -5.2      0.000      0.000
REMARK  Name = BX795.pdbqt.pdb
REMARK  7 active torsions:
REMARK  status: ('A' for Active; 'I' for Inactive)
REMARK    1  A    between atoms: C_4  and  N_25
REMARK    2  A    between atoms: N_8  and  C_10
REMARK    3  A    between atoms: C_12  and  N_16
REMARK    4  A    between atoms: N_25  and  C_27
REMARK    5  A    between atoms: C_27  and  C_28
REMARK    6  A    between atoms: C_29  and  N_30
REMARK    7  A    between atoms: C_31  and  C_34
REMARK                            x       y       z     vdW  Elec       q    Type
REMARK                         _______ _______ _______ _____ _____    ______ ____
ROOT
ATOM      1  I   UNL     1     -58.500 -42.177 -60.424  0.00  0.00    +0.000 I 
ATOM      2  N   UNL     1     -62.348 -43.879 -59.422  0.00  0.00    +0.000 NA
ATOM      3  N   UNL     1     -61.463 -45.172 -61.178  0.00  0.00    +0.000 NA
ATOM      4  C   UNL     1     -61.274 -43.061 -59.439  0.00  0.00    +0.000 A 
ATOM      5  C   UNL     1     -62.418 -44.903 -60.285  0.00  0.00    +0.000 A 
ATOM      6  C   UNL     1     -60.222 -43.304 -60.299  0.00  0.00    +0.000 A 
ATOM      7  C   UNL     1     -60.382 -44.372 -61.148  0.00  0.00    +0.000 A 
ATOM      8  N   UNL     1     -63.543 -45.721 -60.314  0.00  0.00    +0.000 N 
ATOM      9  H   UNL     1     -63.487 -46.398 -61.060  0.00  0.00    +0.000 HD
ENDROOT
BRANCH   8  10
ATOM     10  C   UNL     1     -64.583 -45.858 -59.388  0.00  0.00    +0.000 A 
ATOM     11  C   UNL     1     -64.432 -46.563 -58.190  0.00  0.00    +0.000 A 
ATOM     12  C   UNL     1     -65.441 -46.612 -57.229  0.00  0.00    +0.000 A 
ATOM     13  C   UNL     1     -66.625 -45.917 -57.452  0.00  0.00    +0.000 A 
ATOM     14  C   UNL     1     -66.797 -45.197 -58.632  0.00  0.00    +0.000 A 
ATOM     15  C   UNL     1     -65.782 -45.168 -59.588  0.00  0.00    +0.000 A 
BRANCH  12  16
ATOM     16  N   UNL     1     -65.217 -47.410 -56.092  0.00  0.00    +0.000 N 
ATOM     17  C   UNL     1     -65.958 -48.516 -55.715  0.00  0.00    +0.000 C 
ATOM     18  O   UNL     1     -67.005 -48.864 -56.258  0.00  0.00    +0.000 OA
ATOM     19  N   UNL     1     -65.422 -49.201 -54.624  0.00  0.00    +0.000 N 
ATOM     20  C   UNL     1     -64.314 -48.991 -53.860  0.00  0.00    +0.000 A 
ATOM     21  C   UNL     1     -65.900 -50.314 -54.000  0.00  0.00    +0.000 A 
ATOM     22  C   UNL     1     -63.990 -49.924 -52.688  0.00  0.00    +0.000 A 
ATOM     23  C   UNL     1     -65.166 -50.906 -52.792  0.00  0.00    +0.000 A 
ATOM     24  H   UNL     1     -64.491 -47.099 -55.458  0.00  0.00    +0.000 HD
ENDBRANCH  12  16
ENDBRANCH   8  10
BRANCH   4  25
ATOM     25  N   UNL     1     -61.218 -41.992 -58.508  0.00  0.00    +0.000 N 
ATOM     26  H   UNL     1     -61.838 -41.243 -58.809  0.00  0.00    +0.000 HD
BRANCH  25  27
ATOM     27  C   UNL     1     -61.358 -42.362 -57.102  0.00  0.00    +0.000 C 
BRANCH  27  28
ATOM     28  C   UNL     1     -61.524 -42.851 -55.659  0.00  0.00    +0.000 C 
ATOM     29  C   UNL     1     -61.734 -43.417 -54.252  0.00  0.00    +0.000 C 
BRANCH  29  30
ATOM     30  N   UNL     1     -61.919 -43.968 -53.031  0.00  0.00    +0.000 N 
ATOM     31  C   UNL     1     -62.790 -44.981 -52.656  0.00  0.00    +0.000 C 
ATOM     32  O   UNL     1     -63.514 -45.535 -53.483  0.00  0.00    +0.000 OA
ATOM     33  H   UNL     1     -61.380 -43.519 -52.300  0.00  0.00    +0.000 HD
BRANCH  31  34
ATOM     34  C   UNL     1     -62.781 -45.302 -51.239  0.00  0.00    +0.000 A 
ATOM     35  S   UNL     1     -63.934 -44.576 -50.187  0.00  0.00    +0.000 S 
ATOM     36  C   UNL     1     -63.292 -45.381 -48.841  0.00  0.00    +0.000 A 
ATOM     37  C   UNL     1     -62.234 -46.189 -49.150  0.00  0.00    +0.000 A 
ATOM     38  C   UNL     1     -61.943 -46.140 -50.532  0.00  0.00    +0.000 A 
ENDBRANCH  31  34
ENDBRANCH  29  30
ENDBRANCH  27  28
ENDBRANCH  25  27
ENDBRANCH   4  25
TORSDOF 7
ENDMDL
MODEL 2
REMARK VINA RESULT:      -5.1     18.506     20.948
REMARK  Name = BX795.pdbqt.pdb
REMARK  7 active torsions:
REMARK  status: ('A' for Active; 'I' for Inactive)
REMARK    1  A    between atoms: C_4  and  N_25
REMARK    2  A    between atoms: N_8  and  C_10
REMARK    3  A    between atoms: C_12  and  N_16
REMARK    4  A    between atoms: N_25  and  C_27
REMARK    5  A    between atoms: C_27  and  C_28
REMARK    6  A    between atoms: C_29  and  N_30
REMARK    7  A    between atoms: C_31  and  C_34
REMARK                            x       y       z     vdW  Elec       q    Type
REMARK                         _______ _______ _______ _____ _____    ______ ____
ROOT
ATOM      1  I   UNL     1     -49.850 -64.103 -72.107  0.00  0.00    +0.000 I 
ATOM      2  N   UNL     1     -52.139 -60.997 -70.153  0.00  0.00    +0.000 NA
ATOM      3  N   UNL     1     -50.340 -59.940 -71.242  0.00  0.00    +0.000 NA
ATOM      4  C   UNL     1     -51.714 -62.212 -70.559  0.00  0.00    +0.000 A 
ATOM      5  C   UNL     1     -51.447 -59.901 -70.498  0.00  0.00    +0.000 A 
ATOM      6  C   UNL     1     -50.605 -62.331 -71.372  0.00  0.00    +0.000 A 
ATOM      7  C   UNL     1     -49.958 -61.157 -71.672  0.00  0.00    +0.000 A 
ATOM      8  N   UNL     1     -51.844 -58.648 -70.042  0.00  0.00    +0.000 N 
ATOM      9  H   UNL     1     -51.190 -57.931 -70.318  0.00  0.00    +0.000 HD
ENDROOT
BRANCH   8  10
ATOM     10  C   UNL     1     -53.050 -58.238 -69.463  0.00  0.00    +0.000 A 
ATOM     11  C   UNL     1     -53.250 -58.222 -68.079  0.00  0.00    +0.000 A 
ATOM     12  C   UNL     1     -54.418 -57.720 -67.507  0.00  0.00    +0.000 A 
ATOM     13  C   UNL     1     -55.406 -57.194 -68.333  0.00  0.00    +0.000 A 
ATOM     14  C   UNL     1     -55.228 -57.188 -69.713  0.00  0.00    +0.000 A 
ATOM     15  C   UNL     1     -54.058 -57.704 -70.271  0.00  0.00    +0.000 A 
BRANCH  12  16
ATOM     16  N   UNL     1     -54.551 -57.818 -66.110  0.00  0.00    +0.000 N 
ATOM     17  C   UNL     1     -54.104 -56.893 -65.183  0.00  0.00    +0.000 C 
ATOM     18  O   UNL     1     -53.402 -55.921 -65.460  0.00  0.00    +0.000 OA
ATOM     19  N   UNL     1     -54.499 -57.177 -63.876  0.00  0.00    +0.000 N 
ATOM     20  C   UNL     1     -55.237 -58.187 -63.337  0.00  0.00    +0.000 A 
ATOM     21  C   UNL     1     -54.227 -56.484 -62.735  0.00  0.00    +0.000 A 
ATOM     22  C   UNL     1     -55.492 -58.243 -61.827  0.00  0.00    +0.000 A 
ATOM     23  C   UNL     1     -54.742 -56.979 -61.379  0.00  0.00    +0.000 A 
ATOM     24  H   UNL     1     -54.946 -58.679 -65.753  0.00  0.00    +0.000 HD
ENDBRANCH  12  16
ENDBRANCH   8  10
BRANCH   4  25
ATOM     25  N   UNL     1     -52.470 -63.355 -70.190  0.00  0.00    +0.000 N 
ATOM     26  H   UNL     1     -51.841 -64.112 -69.931  0.00  0.00    +0.000 HD
BRANCH  25  27
ATOM     27  C   UNL     1     -53.557 -63.123 -69.243  0.00  0.00    +0.000 C 
BRANCH  27  28
ATOM     28  C   UNL     1     -54.745 -62.818 -68.324  0.00  0.00    +0.000 C 
ATOM     29  C   UNL     1     -55.983 -62.495 -67.484  0.00  0.00    +0.000 C 
BRANCH  29  30
ATOM     30  N   UNL     1     -57.109 -62.227 -66.784  0.00  0.00    +0.000 N 
ATOM     31  C   UNL     1     -57.528 -61.023 -66.238  0.00  0.00    +0.000 C 
ATOM     32  O   UNL     1     -56.866 -59.996 -66.380  0.00  0.00    +0.000 OA
ATOM     33  H   UNL     1     -57.673 -63.048 -66.597  0.00  0.00    +0.000 HD
BRANCH  31  34
ATOM     34  C   UNL     1     -58.772 -61.090 -65.490  0.00  0.00    +0.000 A 
ATOM     35  S   UNL     1     -59.699 -62.541 -65.492  0.00  0.00    +0.000 S 
ATOM     36  C   UNL     1     -60.886 -61.848 -64.500  0.00  0.00    +0.000 A 
ATOM     37  C   UNL     1     -60.612 -60.554 -64.157  0.00  0.00    +0.000 A 
ATOM     38  C   UNL     1     -59.395 -60.122 -64.729  0.00  0.00    +0.000 A 
ENDBRANCH  31  34
ENDBRANCH  29  30
ENDBRANCH  27  28
ENDBRANCH  25  27
ENDBRANCH   4  25
TORSDOF 7
ENDMDL
MODEL 3
REMARK VINA RESULT:      -5.0     16.115     18.582
REMARK  Name = BX795.pdbqt.pdb
REMARK  7 active torsions:
REMARK  status: ('A' for Active; 'I' for Inactive)
REMARK    1  A    between atoms: C_4  and  N_25
REMARK    2  A    between atoms: N_8  and  C_10
REMARK    3  A    between atoms: C_12  and  N_16
REMARK    4  A    between atoms: N_25  and  C_27
REMARK    5  A    between atoms: C_27  and  C_28
REMARK    6  A    between atoms: C_29  and  N_30
REMARK    7  A    between atoms: C_31  and  C_34
REMARK                            x       y       z     vdW  Elec       q    Type
REMARK                         _______ _______ _______ _____ _____    ______ ____
ROOT
ATOM      1  I   UNL     1     -58.663 -65.260 -67.496  0.00  0.00    +0.000 I 
ATOM      2  N   UNL     1     -56.724 -61.396 -67.607  0.00  0.00    +0.000 NA
ATOM      3  N   UNL     1     -55.058 -63.010 -68.005  0.00  0.00    +0.000 NA
ATOM      4  C   UNL     1     -57.665 -62.354 -67.464  0.00  0.00    +0.000 A 
ATOM      5  C   UNL     1     -55.455 -61.743 -67.868  0.00  0.00    +0.000 A 
ATOM      6  C   UNL     1     -57.342 -63.685 -67.641  0.00  0.00    +0.000 A 
ATOM      7  C   UNL     1     -56.020 -63.947 -67.903  0.00  0.00    +0.000 A 
ATOM      8  N   UNL     1     -54.466 -60.770 -67.964  0.00  0.00    +0.000 N 
ATOM      9  H   UNL     1     -53.554 -61.182 -68.088  0.00  0.00    +0.000 HD
ENDROOT
BRANCH   8  10
ATOM     10  C   UNL     1     -54.577 -59.381 -68.105  0.00  0.00    +0.000 A 
ATOM     11  C   UNL     1     -54.284 -58.497 -67.063  0.00  0.00    +0.000 A 
ATOM     12  C   UNL     1     -54.302 -57.114 -67.240  0.00  0.00    +0.000 A 
ATOM     13  C   UNL     1     -54.593 -56.596 -68.498  0.00  0.00    +0.000 A 
ATOM     14  C   UNL     1     -54.877 -57.454 -69.556  0.00  0.00    +0.000 A 
ATOM     15  C   UNL     1     -54.866 -58.836 -69.358  0.00  0.00    +0.000 A 
BRANCH  12  16
ATOM     16  N   UNL     1     -54.065 -56.311 -66.110  0.00  0.00    +0.000 N 
ATOM     17  C   UNL     1     -52.827 -55.908 -65.642  0.00  0.00    +0.000 C 
ATOM     18  O   UNL     1     -51.755 -56.320 -66.083  0.00  0.00    +0.000 OA
ATOM     19  N   UNL     1     -52.898 -54.997 -64.588  0.00  0.00    +0.000 N 
ATOM     20  C   UNL     1     -53.948 -54.431 -63.930  0.00  0.00    +0.000 A 
ATOM     21  C   UNL     1     -51.878 -54.413 -63.898  0.00  0.00    +0.000 A 
ATOM     22  C   UNL     1     -53.706 -53.459 -62.770  0.00  0.00    +0.000 A 
ATOM     23  C   UNL     1     -52.170 -53.445 -62.746  0.00  0.00    +0.000 A 
ATOM     24  H   UNL     1     -54.874 -56.069 -65.550  0.00  0.00    +0.000 HD
ENDBRANCH  12  16
ENDBRANCH   8  10
BRANCH   4  25
ATOM     25  N   UNL     1     -59.002 -61.960 -67.200  0.00  0.00    +0.000 N 
ATOM     26  H   UNL     1     -59.614 -62.772 -67.245  0.00  0.00    +0.000 HD
BRANCH  25  27
ATOM     27  C   UNL     1     -59.199 -61.122 -66.020  0.00  0.00    +0.000 C 
BRANCH  27  28
ATOM     28  C   UNL     1     -59.376 -60.328 -64.722  0.00  0.00    +0.000 C 
ATOM     29  C   UNL     1     -59.525 -59.457 -63.471  0.00  0.00    +0.000 C 
BRANCH  29  30
ATOM     30  N   UNL     1     -59.668 -58.645 -62.400  0.00  0.00    +0.000 N 
ATOM     31  C   UNL     1     -59.603 -58.963 -61.051  0.00  0.00    +0.000 C 
ATOM     32  O   UNL     1     -59.362 -60.111 -60.680  0.00  0.00    +0.000 OA
ATOM     33  H   UNL     1     -59.914 -57.693 -62.645  0.00  0.00    +0.000 HD
BRANCH  31  34
ATOM     34  C   UNL     1     -59.860 -57.855 -60.147  0.00  0.00    +0.000 A 
ATOM     35  S   UNL     1     -61.216 -57.906 -59.088  0.00  0.00    +0.000 S 
ATOM     36  C   UNL     1     -60.847 -56.378 -58.454  0.00  0.00    +0.000 A 
ATOM     37  C   UNL     1     -59.729 -55.821 -59.009  0.00  0.00    +0.000 A 
ATOM     38  C   UNL     1     -59.164 -56.675 -59.983  0.00  0.00    +0.000 A 
ENDBRANCH  31  34
ENDBRANCH  29  30
ENDBRANCH  27  28
ENDBRANCH  25  27
ENDBRANCH   4  25
TORSDOF 7
ENDMDL
MODEL 4
REMARK VINA RESULT:      -5.0     18.981     21.344
REMARK  Name = BX795.pdbqt.pdb
REMARK  7 active torsions:
REMARK  status: ('A' for Active; 'I' for Inactive)
REMARK    1  A    between atoms: C_4  and  N_25
REMARK    2  A    between atoms: N_8  and  C_10
REMARK    3  A    between atoms: C_12  and  N_16
REMARK    4  A    between atoms: N_25  and  C_27
REMARK    5  A    between atoms: C_27  and  C_28
REMARK    6  A    between atoms: C_29  and  N_30
REMARK    7  A    between atoms: C_31  and  C_34
REMARK                            x       y       z     vdW  Elec       q    Type
REMARK                         _______ _______ _______ _____ _____    ______ ____
ROOT
ATOM      1  I   UNL     1     -73.985 -58.665 -66.617  0.00  0.00    +0.000 I 
ATOM      2  N   UNL     1     -70.678 -59.451 -69.290  0.00  0.00    +0.000 NA
ATOM      3  N   UNL     1     -72.596 -60.391 -70.278  0.00  0.00    +0.000 NA
ATOM      4  C   UNL     1     -71.389 -59.045 -68.217  0.00  0.00    +0.000 A 
ATOM      5  C   UNL     1     -71.291 -60.111 -70.284  0.00  0.00    +0.000 A 
ATOM      6  C   UNL     1     -72.753 -59.254 -68.160  0.00  0.00    +0.000 A 
ATOM      7  C   UNL     1     -73.295 -59.939 -69.220  0.00  0.00    +0.000 A 
ATOM      8  N   UNL     1     -70.560 -60.582 -71.370  0.00  0.00    +0.000 N 
ATOM      9  H   UNL     1     -71.138 -61.121 -71.998  0.00  0.00    +0.000 HD
ENDROOT
BRANCH   8  10
ATOM     10  C   UNL     1     -69.263 -60.265 -71.790  0.00  0.00    +0.000 A 
ATOM     11  C   UNL     1     -68.230 -61.207 -71.809  0.00  0.00    +0.000 A 
ATOM     12  C   UNL     1     -66.968 -60.910 -72.322  0.00  0.00    +0.000 A 
ATOM     13  C   UNL     1     -66.734 -59.648 -72.857  0.00  0.00    +0.000 A 
ATOM     14  C   UNL     1     -67.749 -58.694 -72.861  0.00  0.00    +0.000 A 
ATOM     15  C   UNL     1     -69.002 -59.005 -72.334  0.00  0.00    +0.000 A 
BRANCH  12  16
ATOM     16  N   UNL     1     -65.978 -61.904 -72.227  0.00  0.00    +0.000 N 
ATOM     17  C   UNL     1     -64.922 -61.919 -71.333  0.00  0.00    +0.000 C 
ATOM     18  O   UNL     1     -64.633 -60.982 -70.590  0.00  0.00    +0.000 OA
ATOM     19  N   UNL     1     -64.179 -63.098 -71.366  0.00  0.00    +0.000 N 
ATOM     20  C   UNL     1     -64.290 -64.236 -72.108  0.00  0.00    +0.000 A 
ATOM     21  C   UNL     1     -63.082 -63.434 -70.631  0.00  0.00    +0.000 A 
ATOM     22  C   UNL     1     -63.288 -65.381 -71.930  0.00  0.00    +0.000 A 
ATOM     23  C   UNL     1     -62.390 -64.786 -70.834  0.00  0.00    +0.000 A 
ATOM     24  H   UNL     1     -66.005 -62.637 -72.926  0.00  0.00    +0.000 HD
ENDBRANCH  12  16
ENDBRANCH   8  10
BRANCH   4  25
ATOM     25  N   UNL     1     -70.719 -58.339 -67.185  0.00  0.00    +0.000 N 
ATOM     26  H   UNL     1     -71.398 -57.992 -66.510  0.00  0.00    +0.000 HD
BRANCH  25  27
ATOM     27  C   UNL     1     -69.571 -59.017 -66.589  0.00  0.00    +0.000 C 
BRANCH  27  28
ATOM     28  C   UNL     1     -68.309 -59.637 -65.980  0.00  0.00    +0.000 C 
ATOM     29  C   UNL     1     -67.025 -60.286 -65.457  0.00  0.00    +0.000 C 
BRANCH  29  30
ATOM     30  N   UNL     1     -65.867 -60.851 -65.046  0.00  0.00    +0.000 N 
ATOM     31  C   UNL     1     -64.997 -61.668 -65.755  0.00  0.00    +0.000 C 
ATOM     32  O   UNL     1     -65.210 -61.952 -66.933  0.00  0.00    +0.000 OA
ATOM     33  H   UNL     1     -65.664 -60.688 -64.067  0.00  0.00    +0.000 HD
BRANCH  31  34
ATOM     34  C   UNL     1     -63.861 -62.158 -64.993  0.00  0.00    +0.000 A 
ATOM     35  S   UNL     1     -63.326 -63.782 -65.197  0.00  0.00    +0.000 S 
ATOM     36  C   UNL     1     -62.097 -63.577 -64.048  0.00  0.00    +0.000 A 
ATOM     37  C   UNL     1     -62.066 -62.321 -63.510  0.00  0.00    +0.000 A 
ATOM     38  C   UNL     1     -63.083 -61.508 -64.057  0.00  0.00    +0.000 A 
ENDBRANCH  31  34
ENDBRANCH  29  30
ENDBRANCH  27  28
ENDBRANCH  25  27
ENDBRANCH   4  25
TORSDOF 7
ENDMDL
MODEL 5
REMARK VINA RESULT:      -4.8     24.942     28.056
REMARK  Name = BX795.pdbqt.pdb
REMARK  7 active torsions:
REMARK  status: ('A' for Active; 'I' for Inactive)
REMARK    1  A    between atoms: C_4  and  N_25
REMARK    2  A    between atoms: N_8  and  C_10
REMARK    3  A    between atoms: C_12  and  N_16
REMARK    4  A    between atoms: N_25  and  C_27
REMARK    5  A    between atoms: C_27  and  C_28
REMARK    6  A    between atoms: C_29  and  N_30
REMARK    7  A    between atoms: C_31  and  C_34
REMARK                            x       y       z     vdW  Elec       q    Type
REMARK                         _______ _______ _______ _____ _____    ______ ____
ROOT
ATOM      1  I   UNL     1     -66.033 -65.969 -84.241  0.00  0.00    +0.000 I 
ATOM      2  N   UNL     1     -64.331 -63.114 -81.474  0.00  0.00    +0.000 NA
ATOM      3  N   UNL     1     -63.241 -62.803 -83.536  0.00  0.00    +0.000 NA
ATOM      4  C   UNL     1     -65.069 -64.125 -81.979  0.00  0.00    +0.000 A 
ATOM      5  C   UNL     1     -63.441 -62.485 -82.255  0.00  0.00    +0.000 A 
ATOM      6  C   UNL     1     -64.956 -64.480 -83.308  0.00  0.00    +0.000 A 
ATOM      7  C   UNL     1     -64.019 -63.783 -84.032  0.00  0.00    +0.000 A 
ATOM      8  N   UNL     1     -62.636 -61.478 -81.733  0.00  0.00    +0.000 N 
ATOM      9  H   UNL     1     -61.967 -61.150 -82.413  0.00  0.00    +0.000 HD
ENDROOT
BRANCH   8  10
ATOM     10  C   UNL     1     -62.749 -60.762 -80.536  0.00  0.00    +0.000 A 
ATOM     11  C   UNL     1     -63.577 -59.643 -80.408  0.00  0.00    +0.000 A 
ATOM     12  C   UNL     1     -63.760 -58.995 -79.187  0.00  0.00    +0.000 A 
ATOM     13  C   UNL     1     -63.123 -59.490 -78.054  0.00  0.00    +0.000 A 
ATOM     14  C   UNL     1     -62.301 -60.610 -78.151  0.00  0.00    +0.000 A 
ATOM     15  C   UNL     1     -62.120 -61.240 -79.383  0.00  0.00    +0.000 A 
BRANCH  12  16
ATOM     16  N   UNL     1     -64.555 -57.834 -79.180  0.00  0.00    +0.000 N 
ATOM     17  C   UNL     1     -64.118 -56.547 -79.437  0.00  0.00    +0.000 C 
ATOM     18  O   UNL     1     -62.936 -56.231 -79.570  0.00  0.00    +0.000 OA
ATOM     19  N   UNL     1     -65.150 -55.610 -79.505  0.00  0.00    +0.000 N 
ATOM     20  C   UNL     1     -66.501 -55.718 -79.366  0.00  0.00    +0.000 A 
ATOM     21  C   UNL     1     -65.068 -54.269 -79.731  0.00  0.00    +0.000 A 
ATOM     22  C   UNL     1     -67.395 -54.478 -79.476  0.00  0.00    +0.000 A 
ATOM     23  C   UNL     1     -66.332 -53.403 -79.747  0.00  0.00    +0.000 A 
ATOM     24  H   UNL     1     -65.518 -57.948 -78.890  0.00  0.00    +0.000 HD
ENDBRANCH  12  16
ENDBRANCH   8  10
BRANCH   4  25
ATOM     25  N   UNL     1     -66.012 -64.767 -81.134  0.00  0.00    +0.000 N 
ATOM     26  H   UNL     1     -65.724 -65.730 -80.970  0.00  0.00    +0.000 HD
BRANCH  25  27
ATOM     27  C   UNL     1     -66.390 -64.036 -79.928  0.00  0.00    +0.000 C 
BRANCH  27  28
ATOM     28  C   UNL     1     -66.687 -63.288 -78.624  0.00  0.00    +0.000 C 
ATOM     29  C   UNL     1     -66.903 -62.494 -77.333  0.00  0.00    +0.000 C 
BRANCH  29  30
ATOM     30  N   UNL     1     -67.064 -61.751 -76.215  0.00  0.00    +0.000 N 
ATOM     31  C   UNL     1     -66.105 -61.074 -75.474  0.00  0.00    +0.000 C 
ATOM     32  O   UNL     1     -64.924 -61.069 -75.817  0.00  0.00    +0.000 OA
ATOM     33  H   UNL     1     -68.013 -61.756 -75.860  0.00  0.00    +0.000 HD
BRANCH  31  34
ATOM     34  C   UNL     1     -66.608 -60.411 -74.283  0.00  0.00    +0.000 A 
ATOM     35  S   UNL     1     -67.989 -59.388 -74.386  0.00  0.00    +0.000 S 
ATOM     36  C   UNL     1     -67.914 -59.029 -72.732  0.00  0.00    +0.000 A 
ATOM     37  C   UNL     1     -66.882 -59.656 -72.091  0.00  0.00    +0.000 A 
ATOM     38  C   UNL     1     -66.133 -60.451 -72.988  0.00  0.00    +0.000 A 
ENDBRANCH  31  34
ENDBRANCH  29  30
ENDBRANCH  27  28
ENDBRANCH  25  27
ENDBRANCH   4  25
TORSDOF 7
ENDMDL
MODEL 6
REMARK VINA RESULT:      -4.8     27.332     32.574
REMARK  Name = BX795.pdbqt.pdb
REMARK  7 active torsions:
REMARK  status: ('A' for Active; 'I' for Inactive)
REMARK    1  A    between atoms: C_4  and  N_25
REMARK    2  A    between atoms: N_8  and  C_10
REMARK    3  A    between atoms: C_12  and  N_16
REMARK    4  A    between atoms: N_25  and  C_27
REMARK    5  A    between atoms: C_27  and  C_28
REMARK    6  A    between atoms: C_29  and  N_30
REMARK    7  A    between atoms: C_31  and  C_34
REMARK                            x       y       z     vdW  Elec       q    Type
REMARK                         _______ _______ _______ _____ _____    ______ ____
ROOT
ATOM      1  I   UNL     1     -78.678 -63.865 -29.098  0.00  0.00    +0.000 I 
ATOM      2  N   UNL     1     -75.600 -61.237 -27.573  0.00  0.00    +0.000 NA
ATOM      3  N   UNL     1     -77.567 -60.758 -26.372  0.00  0.00    +0.000 NA
ATOM      4  C   UNL     1     -76.241 -62.162 -28.318  0.00  0.00    +0.000 A 
ATOM      5  C   UNL     1     -76.272 -60.561 -26.630  0.00  0.00    +0.000 A 
ATOM      6  C   UNL     1     -77.568 -62.458 -28.079  0.00  0.00    +0.000 A 
ATOM      7  C   UNL     1     -78.176 -61.715 -27.096  0.00  0.00    +0.000 A 
ATOM      8  N   UNL     1     -75.637 -59.567 -25.891  0.00  0.00    +0.000 N 
ATOM      9  H   UNL     1     -76.282 -59.097 -25.275  0.00  0.00    +0.000 HD
ENDROOT
BRANCH   8  10
ATOM     10  C   UNL     1     -74.274 -59.282 -25.747  0.00  0.00    +0.000 A 
ATOM     11  C   UNL     1     -73.586 -58.444 -26.630  0.00  0.00    +0.000 A 
ATOM     12  C   UNL     1     -72.255 -58.086 -26.423  0.00  0.00    +0.000 A 
ATOM     13  C   UNL     1     -71.595 -58.553 -25.291  0.00  0.00    +0.000 A 
ATOM     14  C   UNL     1     -72.260 -59.379 -24.389  0.00  0.00    +0.000 A 
ATOM     15  C   UNL     1     -73.590 -59.737 -24.617  0.00  0.00    +0.000 A 
BRANCH  12  16
ATOM     16  N   UNL     1     -71.633 -57.299 -27.410  0.00  0.00    +0.000 N 
ATOM     17  C   UNL     1     -71.441 -57.655 -28.733  0.00  0.00    +0.000 C 
ATOM     18  O   UNL     1     -71.668 -58.775 -29.188  0.00  0.00    +0.000 OA
ATOM     19  N   UNL     1     -70.928 -56.623 -29.519  0.00  0.00    +0.000 N 
ATOM     20  C   UNL     1     -70.579 -55.336 -29.236  0.00  0.00    +0.000 A 
ATOM     21  C   UNL     1     -70.617 -56.637 -30.845  0.00  0.00    +0.000 A 
ATOM     22  C   UNL     1     -70.011 -54.426 -30.330  0.00  0.00    +0.000 A 
ATOM     23  C   UNL     1     -70.038 -55.391 -31.525  0.00  0.00    +0.000 A 
ATOM     24  H   UNL     1     -71.228 -56.424 -27.100  0.00  0.00    +0.000 HD
ENDBRANCH  12  16
ENDBRANCH   8  10
BRANCH   4  25
ATOM     25  N   UNL     1     -75.505 -62.872 -29.302  0.00  0.00    +0.000 N 
ATOM     26  H   UNL     1     -76.142 -63.415 -29.882  0.00  0.00    +0.000 HD
BRANCH  25  27
ATOM     27  C   UNL     1     -74.526 -62.091 -30.053  0.00  0.00    +0.000 C 
BRANCH  27  28
ATOM     28  C   UNL     1     -73.439 -61.362 -30.851  0.00  0.00    +0.000 C 
ATOM     29  C   UNL     1     -72.355 -60.566 -31.582  0.00  0.00    +0.000 C 
BRANCH  29  30
ATOM     30  N   UNL     1     -71.381 -59.842 -32.180  0.00  0.00    +0.000 N 
ATOM     31  C   UNL     1     -70.235 -60.288 -32.823  0.00  0.00    +0.000 C 
ATOM     32  O   UNL     1     -69.998 -61.489 -32.939  0.00  0.00    +0.000 OA
ATOM     33  H   UNL     1     -71.502 -58.841 -32.075  0.00  0.00    +0.000 HD
BRANCH  31  34
ATOM     34  C   UNL     1     -69.359 -59.236 -33.310  0.00  0.00    +0.000 A 
ATOM     35  S   UNL     1     -69.774 -58.365 -34.737  0.00  0.00    +0.000 S 
ATOM     36  C   UNL     1     -68.363 -57.430 -34.640  0.00  0.00    +0.000 A 
ATOM     37  C   UNL     1     -67.581 -57.744 -33.564  0.00  0.00    +0.000 A 
ATOM     38  C   UNL     1     -68.159 -58.784 -32.801  0.00  0.00    +0.000 A 
ENDBRANCH  31  34
ENDBRANCH  29  30
ENDBRANCH  27  28
ENDBRANCH  25  27
ENDBRANCH   4  25
TORSDOF 7
ENDMDL
MODEL 7
REMARK VINA RESULT:      -4.8     27.352     30.431
REMARK  Name = BX795.pdbqt.pdb
REMARK  7 active torsions:
REMARK  status: ('A' for Active; 'I' for Inactive)
REMARK    1  A    between atoms: C_4  and  N_25
REMARK    2  A    between atoms: N_8  and  C_10
REMARK    3  A    between atoms: C_12  and  N_16
REMARK    4  A    between atoms: N_25  and  C_27
REMARK    5  A    between atoms: C_27  and  C_28
REMARK    6  A    between atoms: C_29  and  N_30
REMARK    7  A    between atoms: C_31  and  C_34
REMARK                            x       y       z     vdW  Elec       q    Type
REMARK                         _______ _______ _______ _____ _____    ______ ____
ROOT
ATOM      1  I   UNL     1     -72.964 -65.613 -34.438  0.00  0.00    +0.000 I 
ATOM      2  N   UNL     1     -70.367 -62.222 -33.764  0.00  0.00    +0.000 NA
ATOM      3  N   UNL     1     -71.289 -61.962 -35.914  0.00  0.00    +0.000 NA
ATOM      4  C   UNL     1     -71.015 -63.393 -33.591  0.00  0.00    +0.000 A 
ATOM      5  C   UNL     1     -70.514 -61.542 -34.911  0.00  0.00    +0.000 A 
ATOM      6  C   UNL     1     -71.873 -63.869 -34.562  0.00  0.00    +0.000 A 
ATOM      7  C   UNL     1     -71.961 -63.109 -35.703  0.00  0.00    +0.000 A 
ATOM      8  N   UNL     1     -69.810 -60.361 -35.123  0.00  0.00    +0.000 N 
ATOM      9  H   UNL     1     -69.963 -60.003 -36.054  0.00  0.00    +0.000 HD
ENDROOT
BRANCH   8  10
ATOM     10  C   UNL     1     -69.122 -59.546 -34.218  0.00  0.00    +0.000 A 
ATOM     11  C   UNL     1     -69.750 -58.519 -33.507  0.00  0.00    +0.000 A 
ATOM     12  C   UNL     1     -69.081 -57.776 -32.536  0.00  0.00    +0.000 A 
ATOM     13  C   UNL     1     -67.756 -58.081 -32.242  0.00  0.00    +0.000 A 
ATOM     14  C   UNL     1     -67.110 -59.106 -32.927  0.00  0.00    +0.000 A 
ATOM     15  C   UNL     1     -67.791 -59.833 -33.904  0.00  0.00    +0.000 A 
BRANCH  12  16
ATOM     16  N   UNL     1     -69.781 -56.716 -31.932  0.00  0.00    +0.000 N 
ATOM     17  C   UNL     1     -70.609 -56.812 -30.827  0.00  0.00    +0.000 C 
ATOM     18  O   UNL     1     -70.950 -57.874 -30.309  0.00  0.00    +0.000 OA
ATOM     19  N   UNL     1     -71.057 -55.577 -30.356  0.00  0.00    +0.000 N 
ATOM     20  C   UNL     1     -70.840 -54.299 -30.775  0.00  0.00    +0.000 A 
ATOM     21  C   UNL     1     -71.882 -55.316 -29.304  0.00  0.00    +0.000 A 
ATOM     22  C   UNL     1     -71.502 -53.121 -30.052  0.00  0.00    +0.000 A 
ATOM     23  C   UNL     1     -72.276 -53.875 -28.961  0.00  0.00    +0.000 A 
ATOM     24  H   UNL     1     -69.728 -55.817 -32.396  0.00  0.00    +0.000 HD
ENDBRANCH  12  16
ENDBRANCH   8  10
BRANCH   4  25
ATOM     25  N   UNL     1     -70.851 -64.087 -32.364  0.00  0.00    +0.000 N 
ATOM     26  H   UNL     1     -69.938 -64.536 -32.344  0.00  0.00    +0.000 HD
BRANCH  25  27
ATOM     27  C   UNL     1     -71.179 -63.334 -31.157  0.00  0.00    +0.000 C 
BRANCH  27  28
ATOM     28  C   UNL     1     -71.444 -62.475 -29.916  0.00  0.00    +0.000 C 
ATOM     29  C   UNL     1     -71.690 -61.541 -28.728  0.00  0.00    +0.000 C 
BRANCH  29  30
ATOM     30  N   UNL     1     -71.923 -60.675 -27.715  0.00  0.00    +0.000 N 
ATOM     31  C   UNL     1     -72.180 -60.948 -26.379  0.00  0.00    +0.000 C 
ATOM     32  O   UNL     1     -72.194 -62.104 -25.958  0.00  0.00    +0.000 OA
ATOM     33  H   UNL     1     -71.968 -59.708 -28.014  0.00  0.00    +0.000 HD
BRANCH  31  34
ATOM     34  C   UNL     1     -72.445 -59.780 -25.557  0.00  0.00    +0.000 A 
ATOM     35  S   UNL     1     -73.256 -58.419 -26.231  0.00  0.00    +0.000 S 
ATOM     36  C   UNL     1     -73.160 -57.569 -24.769  0.00  0.00    +0.000 A 
ATOM     37  C   UNL     1     -72.538 -58.273 -23.776  0.00  0.00    +0.000 A 
ATOM     38  C   UNL     1     -72.129 -59.546 -24.234  0.00  0.00    +0.000 A 
ENDBRANCH  31  34
ENDBRANCH  29  30
ENDBRANCH  27  28
ENDBRANCH  25  27
ENDBRANCH   4  25
TORSDOF 7
ENDMDL
MODEL 8
REMARK VINA RESULT:      -4.7     34.392     37.777
REMARK  Name = BX795.pdbqt.pdb
REMARK  7 active torsions:
REMARK  status: ('A' for Active; 'I' for Inactive)
REMARK    1  A    between atoms: C_4  and  N_25
REMARK    2  A    between atoms: N_8  and  C_10
REMARK    3  A    between atoms: C_12  and  N_16
REMARK    4  A    between atoms: N_25  and  C_27
REMARK    5  A    between atoms: C_27  and  C_28
REMARK    6  A    between atoms: C_29  and  N_30
REMARK    7  A    between atoms: C_31  and  C_34
REMARK                            x       y       z     vdW  Elec       q    Type
REMARK                         _______ _______ _______ _____ _____    ______ ____
ROOT
ATOM      1  I   UNL     1     -80.320 -50.251 -21.894  0.00  0.00    +0.000 I 
ATOM      2  N   UNL     1     -77.016 -52.781 -20.719  0.00  0.00    +0.000 NA
ATOM      3  N   UNL     1     -78.989 -53.883 -20.064  0.00  0.00    +0.000 NA
ATOM      4  C   UNL     1     -77.720 -51.734 -21.197  0.00  0.00    +0.000 A 
ATOM      5  C   UNL     1     -77.660 -53.819 -20.166  0.00  0.00    +0.000 A 
ATOM      6  C   UNL     1     -79.100 -51.748 -21.173  0.00  0.00    +0.000 A 
ATOM      7  C   UNL     1     -79.674 -52.849 -20.587  0.00  0.00    +0.000 A 
ATOM      8  N   UNL     1     -76.944 -54.880 -19.621  0.00  0.00    +0.000 N 
ATOM      9  H   UNL     1     -77.556 -55.549 -19.176  0.00  0.00    +0.000 HD
ENDROOT
BRANCH   8  10
ATOM     10  C   UNL     1     -75.597 -55.230 -19.768  0.00  0.00    +0.000 A 
ATOM     11  C   UNL     1     -75.122 -55.931 -20.880  0.00  0.00    +0.000 A 
ATOM     12  C   UNL     1     -73.764 -56.189 -21.066  0.00  0.00    +0.000 A 
ATOM     13  C   UNL     1     -72.850 -55.714 -20.133  0.00  0.00    +0.000 A 
ATOM     14  C   UNL     1     -73.295 -55.003 -19.021  0.00  0.00    +0.000 A 
ATOM     15  C   UNL     1     -74.658 -54.763 -18.844  0.00  0.00    +0.000 A 
BRANCH  12  16
ATOM     16  N   UNL     1     -73.398 -56.966 -22.180  0.00  0.00    +0.000 N 
ATOM     17  C   UNL     1     -73.481 -56.578 -23.506  0.00  0.00    +0.000 C 
ATOM     18  O   UNL     1     -74.022 -55.542 -23.890  0.00  0.00    +0.000 OA
ATOM     19  N   UNL     1     -72.913 -57.494 -24.392  0.00  0.00    +0.000 N 
ATOM     20  C   UNL     1     -72.296 -58.694 -24.204  0.00  0.00    +0.000 A 
ATOM     21  C   UNL     1     -72.833 -57.426 -25.750  0.00  0.00    +0.000 A 
ATOM     22  C   UNL     1     -71.783 -59.499 -25.403  0.00  0.00    +0.000 A 
ATOM     23  C   UNL     1     -72.181 -58.559 -26.550  0.00  0.00    +0.000 A 
ATOM     24  H   UNL     1     -73.117 -57.920 -21.992  0.00  0.00    +0.000 HD
ENDBRANCH  12  16
ENDBRANCH   8  10
BRANCH   4  25
ATOM     25  N   UNL     1     -77.015 -50.653 -21.788  0.00  0.00    +0.000 N 
ATOM     26  H   UNL     1     -77.575 -49.805 -21.727  0.00  0.00    +0.000 HD
BRANCH  25  27
ATOM     27  C   UNL     1     -75.627 -50.490 -21.366  0.00  0.00    +0.000 C 
BRANCH  27  28
ATOM     28  C   UNL     1     -74.198 -50.362 -20.827  0.00  0.00    +0.000 C 
ATOM     29  C   UNL     1     -72.807 -50.218 -20.204  0.00  0.00    +0.000 C 
BRANCH  29  30
ATOM     30  N   UNL     1     -71.599 -50.109 -19.605  0.00  0.00    +0.000 N 
ATOM     31  C   UNL     1     -70.349 -50.452 -20.098  0.00  0.00    +0.000 C 
ATOM     32  O   UNL     1     -70.216 -50.901 -21.236  0.00  0.00    +0.000 OA
ATOM     33  H   UNL     1     -71.653 -49.786 -18.646  0.00  0.00    +0.000 HD
BRANCH  31  34
ATOM     34  C   UNL     1     -69.250 -50.258 -19.167  0.00  0.00    +0.000 A 
ATOM     35  S   UNL     1     -67.769 -51.105 -19.398  0.00  0.00    +0.000 S 
ATOM     36  C   UNL     1     -67.091 -50.406 -18.011  0.00  0.00    +0.000 A 
ATOM     37  C   UNL     1     -67.940 -49.547 -17.371  0.00  0.00    +0.000 A 
ATOM     38  C   UNL     1     -69.181 -49.465 -18.040  0.00  0.00    +0.000 A 
ENDBRANCH  31  34
ENDBRANCH  29  30
ENDBRANCH  27  28
ENDBRANCH  25  27
ENDBRANCH   4  25
TORSDOF 7
ENDMDL
MODEL 9
REMARK VINA RESULT:      -4.7     13.141     15.596
REMARK  Name = BX795.pdbqt.pdb
REMARK  7 active torsions:
REMARK  status: ('A' for Active; 'I' for Inactive)
REMARK    1  A    between atoms: C_4  and  N_25
REMARK    2  A    between atoms: N_8  and  C_10
REMARK    3  A    between atoms: C_12  and  N_16
REMARK    4  A    between atoms: N_25  and  C_27
REMARK    5  A    between atoms: C_27  and  C_28
REMARK    6  A    between atoms: C_29  and  N_30
REMARK    7  A    between atoms: C_31  and  C_34
REMARK                            x       y       z     vdW  Elec       q    Type
REMARK                         _______ _______ _______ _____ _____    ______ ____
ROOT
ATOM      1  I   UNL     1     -61.739 -46.022 -40.318  0.00  0.00    +0.000 I 
ATOM      2  N   UNL     1     -58.600 -46.162 -43.290  0.00  0.00    +0.000 NA
ATOM      3  N   UNL     1     -60.396 -44.979 -44.245  0.00  0.00    +0.000 NA
ATOM      4  C   UNL     1     -59.297 -46.367 -42.152  0.00  0.00    +0.000 A 
ATOM      5  C   UNL     1     -59.161 -45.483 -44.301  0.00  0.00    +0.000 A 
ATOM      6  C   UNL     1     -60.561 -45.834 -41.999  0.00  0.00    +0.000 A 
ATOM      7  C   UNL     1     -61.056 -45.156 -43.086  0.00  0.00    +0.000 A 
ATOM      8  N   UNL     1     -58.474 -45.311 -45.498  0.00  0.00    +0.000 N 
ATOM      9  H   UNL     1     -59.046 -44.848 -46.189  0.00  0.00    +0.000 HD
ENDROOT
BRANCH   8  10
ATOM     10  C   UNL     1     -57.120 -45.499 -45.797  0.00  0.00    +0.000 A 
ATOM     11  C   UNL     1     -56.612 -46.724 -46.239  0.00  0.00    +0.000 A 
ATOM     12  C   UNL     1     -55.282 -46.875 -46.628  0.00  0.00    +0.000 A 
ATOM     13  C   UNL     1     -54.438 -45.770 -46.602  0.00  0.00    +0.000 A 
ATOM     14  C   UNL     1     -54.920 -44.536 -46.177  0.00  0.00    +0.000 A 
ATOM     15  C   UNL     1     -56.251 -44.404 -45.780  0.00  0.00    +0.000 A 
BRANCH  12  16
ATOM     16  N   UNL     1     -54.853 -48.166 -46.986  0.00  0.00    +0.000 N 
ATOM     17  C   UNL     1     -54.224 -48.517 -48.167  0.00  0.00    +0.000 C 
ATOM     18  O   UNL     1     -54.080 -47.759 -49.125  0.00  0.00    +0.000 OA
ATOM     19  N   UNL     1     -53.781 -49.840 -48.192  0.00  0.00    +0.000 N 
ATOM     20  C   UNL     1     -53.850 -50.851 -47.281  0.00  0.00    +0.000 A 
ATOM     21  C   UNL     1     -53.137 -50.503 -49.193  0.00  0.00    +0.000 A 
ATOM     22  C   UNL     1     -53.279 -52.234 -47.611  0.00  0.00    +0.000 A 
ATOM     23  C   UNL     1     -52.750 -51.977 -49.030  0.00  0.00    +0.000 A 
ATOM     24  H   UNL     1     -55.095 -48.915 -46.348  0.00  0.00    +0.000 HD
ENDBRANCH  12  16
ENDBRANCH   8  10
BRANCH   4  25
ATOM     25  N   UNL     1     -58.676 -47.079 -41.093  0.00  0.00    +0.000 N 
ATOM     26  H   UNL     1     -59.323 -47.771 -40.720  0.00  0.00    +0.000 HD
BRANCH  25  27
ATOM     27  C   UNL     1     -57.337 -47.591 -41.367  0.00  0.00    +0.000 C 
BRANCH  27  28
ATOM     28  C   UNL     1     -55.976 -48.227 -41.669  0.00  0.00    +0.000 C 
ATOM     29  C   UNL     1     -54.661 -48.928 -42.022  0.00  0.00    +0.000 C 
BRANCH  29  30
ATOM     30  N   UNL     1     -53.523 -49.564 -42.382  0.00  0.00    +0.000 N 
ATOM     31  C   UNL     1     -52.850 -49.525 -43.595  0.00  0.00    +0.000 C 
ATOM     32  O   UNL     1     -53.253 -48.825 -44.523  0.00  0.00    +0.000 OA
ATOM     33  H   UNL     1     -53.170 -50.193 -41.670  0.00  0.00    +0.000 HD
BRANCH  31  34
ATOM     34  C   UNL     1     -51.677 -50.379 -43.671  0.00  0.00    +0.000 A 
ATOM     35  S   UNL     1     -51.862 -52.087 -43.778  0.00  0.00    +0.000 S 
ATOM     36  C   UNL     1     -50.184 -52.321 -43.803  0.00  0.00    +0.000 A 
ATOM     37  C   UNL     1     -49.475 -51.154 -43.737  0.00  0.00    +0.000 A 
ATOM     38  C   UNL     1     -50.339 -50.038 -43.661  0.00  0.00    +0.000 A 
ENDBRANCH  31  34
ENDBRANCH  29  30
ENDBRANCH  27  28
ENDBRANCH  25  27
ENDBRANCH   4  25
TORSDOF 7
ENDMDL
