MODEL 1
REMARK VINA RESULT:      -2.4      0.000      0.000
REMARK  Name = CadmiumAcetate.pdbqt.pdb
REMARK  1 active torsions:
REMARK  status: ('A' for Active; 'I' for Inactive)
REMARK    1  A    between atoms: C_3  and  O_4
REMARK                            x       y       z     vdW  Elec       q    Type
REMARK                         _______ _______ _______ _____ _____    ______ ____
ROOT
ATOM      1  O   UNL     1     -60.833 -45.144 -61.542  0.00  0.00    +0.000 OA
ATOM      2  C   UNL     1     -61.298 -46.634 -59.854  0.00  0.00    +0.000 C 
ATOM      3  C   UNL     1     -61.515 -46.090 -61.208  0.00  0.00    +0.000 C 
ENDROOT
BRANCH   3   4
ATOM      4  O   UNL     1     -62.448 -46.696 -61.941  0.00  0.00    +0.000 OA
ATOM      5  H   UNL     1     -62.885 -47.277 -61.291  0.00  0.00    +0.000 HD
ENDBRANCH   3   4
TORSDOF 1
ENDMDL
MODEL 2
REMARK VINA RESULT:      -2.4     14.862     15.137
REMARK  Name = CadmiumAcetate.pdbqt.pdb
REMARK  1 active torsions:
REMARK  status: ('A' for Active; 'I' for Inactive)
REMARK    1  A    between atoms: C_3  and  O_4
REMARK                            x       y       z     vdW  Elec       q    Type
REMARK                         _______ _______ _______ _____ _____    ______ ____
ROOT
ATOM      1  O   UNL     1     -55.548 -57.903 -70.348  0.00  0.00    +0.000 OA
ATOM      2  C   UNL     1     -54.723 -56.390 -68.826  0.00  0.00    +0.000 C 
ATOM      3  C   UNL     1     -55.641 -57.477 -69.215  0.00  0.00    +0.000 C 
ENDROOT
BRANCH   3   4
ATOM      4  O   UNL     1     -56.490 -57.893 -68.277  0.00  0.00    +0.000 OA
ATOM      5  H   UNL     1     -57.142 -57.168 -68.245  0.00  0.00    +0.000 HD
ENDBRANCH   3   4
TORSDOF 1
ENDMDL
MODEL 3
REMARK VINA RESULT:      -2.2      1.633      2.203
REMARK  Name = CadmiumAcetate.pdbqt.pdb
REMARK  1 active torsions:
REMARK  status: ('A' for Active; 'I' for Inactive)
REMARK    1  A    between atoms: C_3  and  O_4
REMARK                            x       y       z     vdW  Elec       q    Type
REMARK                         _______ _______ _______ _____ _____    ______ ____
ROOT
ATOM      1  O   UNL     1     -62.947 -46.889 -60.225  0.00  0.00    +0.000 OA
ATOM      2  C   UNL     1     -61.647 -46.420 -58.387  0.00  0.00    +0.000 C 
ATOM      3  C   UNL     1     -61.813 -46.798 -59.804  0.00  0.00    +0.000 C 
ENDROOT
BRANCH   3   4
ATOM      4  O   UNL     1     -60.691 -47.004 -60.491  0.00  0.00    +0.000 OA
ATOM      5  H   UNL     1     -60.141 -46.240 -60.235  0.00  0.00    +0.000 HD
ENDBRANCH   3   4
TORSDOF 1
ENDMDL
MODEL 4
REMARK VINA RESULT:      -2.2     15.362     15.630
REMARK  Name = CadmiumAcetate.pdbqt.pdb
REMARK  1 active torsions:
REMARK  status: ('A' for Active; 'I' for Inactive)
REMARK    1  A    between atoms: C_3  and  O_4
REMARK                            x       y       z     vdW  Elec       q    Type
REMARK                         _______ _______ _______ _____ _____    ______ ____
ROOT
ATOM      1  O   UNL     1     -55.384 -58.138 -70.703  0.00  0.00    +0.000 OA
ATOM      2  C   UNL     1     -56.045 -57.023 -68.804  0.00  0.00    +0.000 C 
ATOM      3  C   UNL     1     -55.045 -57.361 -69.834  0.00  0.00    +0.000 C 
ENDROOT
BRANCH   3   4
ATOM      4  O   UNL     1     -53.855 -56.776 -69.712  0.00  0.00    +0.000 OA
ATOM      5  H   UNL     1     -53.754 -56.699 -68.745  0.00  0.00    +0.000 HD
ENDBRANCH   3   4
TORSDOF 1
ENDMDL
MODEL 5
REMARK VINA RESULT:      -2.2     44.731     45.218
REMARK  Name = CadmiumAcetate.pdbqt.pdb
REMARK  1 active torsions:
REMARK  status: ('A' for Active; 'I' for Inactive)
REMARK    1  A    between atoms: C_3  and  O_4
REMARK                            x       y       z     vdW  Elec       q    Type
REMARK                         _______ _______ _______ _____ _____    ______ ____
ROOT
ATOM      1  O   UNL     1     -71.143 -63.568 -19.382  0.00  0.00    +0.000 OA
ATOM      2  C   UNL     1     -70.957 -62.234 -21.246  0.00  0.00    +0.000 C 
ATOM      3  C   UNL     1     -70.391 -62.891 -20.052  0.00  0.00    +0.000 C 
ENDROOT
BRANCH   3   4
ATOM      4  O   UNL     1     -69.096 -62.676 -19.823  0.00  0.00    +0.000 OA
ATOM      5  H   UNL     1     -68.678 -63.007 -20.639  0.00  0.00    +0.000 HD
ENDBRANCH   3   4
TORSDOF 1
ENDMDL
MODEL 6
REMARK VINA RESULT:      -2.1     28.542     28.993
REMARK  Name = CadmiumAcetate.pdbqt.pdb
REMARK  1 active torsions:
REMARK  status: ('A' for Active; 'I' for Inactive)
REMARK    1  A    between atoms: C_3  and  O_4
REMARK                            x       y       z     vdW  Elec       q    Type
REMARK                         _______ _______ _______ _____ _____    ______ ____
ROOT
ATOM      1  O   UNL     1     -59.600 -66.202 -81.909  0.00  0.00    +0.000 OA
ATOM      2  C   UNL     1     -58.951 -68.325 -81.311  0.00  0.00    +0.000 C 
ATOM      3  C   UNL     1     -58.990 -66.866 -81.097  0.00  0.00    +0.000 C 
ENDROOT
BRANCH   3   4
ATOM      4  O   UNL     1     -58.347 -66.413 -80.022  0.00  0.00    +0.000 OA
ATOM      5  H   UNL     1     -58.550 -67.091 -79.351  0.00  0.00    +0.000 HD
ENDBRANCH   3   4
TORSDOF 1
ENDMDL
MODEL 7
REMARK VINA RESULT:      -2.1     41.536     41.928
REMARK  Name = CadmiumAcetate.pdbqt.pdb
REMARK  1 active torsions:
REMARK  status: ('A' for Active; 'I' for Inactive)
REMARK    1  A    between atoms: C_3  and  O_4
REMARK                            x       y       z     vdW  Elec       q    Type
REMARK                         _______ _______ _______ _____ _____    ______ ____
ROOT
ATOM      1  O   UNL     1     -52.422 -70.718 -94.911  0.00  0.00    +0.000 OA
ATOM      2  C   UNL     1     -52.377 -70.100 -92.697  0.00  0.00    +0.000 C 
ATOM      3  C   UNL     1     -51.718 -70.354 -93.992  0.00  0.00    +0.000 C 
ENDROOT
BRANCH   3   4
ATOM      4  O   UNL     1     -50.401 -70.158 -94.028  0.00  0.00    +0.000 OA
ATOM      5  H   UNL     1     -50.229 -70.043 -94.981  0.00  0.00    +0.000 HD
ENDBRANCH   3   4
TORSDOF 1
ENDMDL
MODEL 8
REMARK VINA RESULT:      -2.1     23.524     23.817
REMARK  Name = CadmiumAcetate.pdbqt.pdb
REMARK  1 active torsions:
REMARK  status: ('A' for Active; 'I' for Inactive)
REMARK    1  A    between atoms: C_3  and  O_4
REMARK                            x       y       z     vdW  Elec       q    Type
REMARK                         _______ _______ _______ _____ _____    ______ ____
ROOT
ATOM      1  O   UNL     1     -53.613 -63.132 -74.291  0.00  0.00    +0.000 OA
ATOM      2  C   UNL     1     -51.682 -62.205 -75.127  0.00  0.00    +0.000 C 
ATOM      3  C   UNL     1     -52.774 -63.196 -75.165  0.00  0.00    +0.000 C 
ENDROOT
BRANCH   3   4
ATOM      4  O   UNL     1     -52.734 -64.074 -76.166  0.00  0.00    +0.000 OA
ATOM      5  H   UNL     1     -52.420 -64.885 -75.725  0.00  0.00    +0.000 HD
ENDBRANCH   3   4
TORSDOF 1
ENDMDL
MODEL 9
REMARK VINA RESULT:      -2.1      8.476      8.898
REMARK  Name = CadmiumAcetate.pdbqt.pdb
REMARK  1 active torsions:
REMARK  status: ('A' for Active; 'I' for Inactive)
REMARK    1  A    between atoms: C_3  and  O_4
REMARK                            x       y       z     vdW  Elec       q    Type
REMARK                         _______ _______ _______ _____ _____    ______ ____
ROOT
ATOM      1  O   UNL     1     -58.676 -55.532 -60.376  0.00  0.00    +0.000 OA
ATOM      2  C   UNL     1     -60.684 -54.649 -61.067  0.00  0.00    +0.000 C 
ATOM      3  C   UNL     1     -59.378 -54.542 -60.389  0.00  0.00    +0.000 C 
ENDROOT
BRANCH   3   4
ATOM      4  O   UNL     1     -59.091 -53.358 -59.852  0.00  0.00    +0.000 OA
ATOM      5  H   UNL     1     -58.369 -53.574 -59.233  0.00  0.00    +0.000 HD
ENDBRANCH   3   4
TORSDOF 1
ENDMDL
