MODEL 1
REMARK VINA RESULT:      -6.4      0.000      0.000
REMARK  Name = Calcitriol.pdbqt.pdb
REMARK  9 active torsions:
REMARK  status: ('A' for Active; 'I' for Inactive)
REMARK    1  A    between atoms: C_2  and  C_24
REMARK    2  A    between atoms: C_7  and  C_11
REMARK    3  A    between atoms: C_12  and  C_13
REMARK    4  A    between atoms: C_16  and  O_20
REMARK    5  A    between atoms: C_18  and  O_22
REMARK    6  A    between atoms: C_24  and  C_26
REMARK    7  A    between atoms: C_27  and  C_28
REMARK    8  A    between atoms: C_28  and  C_29
REMARK    9  A    between atoms: C_29  and  O_32
REMARK                            x       y       z     vdW  Elec       q    Type
REMARK                         _______ _______ _______ _____ _____    ______ ____
ROOT
ATOM      1  C   UNL     1     -64.296 -59.479 -79.117  0.00  0.00    +0.000 C 
ATOM      2  C   UNL     1     -62.922 -59.797 -79.699  0.00  0.00    +0.000 C 
ATOM      3  C   UNL     1     -64.120 -59.852 -77.546  0.00  0.00    +0.000 C 
ATOM      4  C   UNL     1     -62.022 -60.139 -78.647  0.00  0.00    +0.000 C 
ATOM      5  C   UNL     1     -62.738 -60.148 -77.324  0.00  0.00    +0.000 C 
ATOM      6  C   UNL     1     -65.385 -60.327 -79.630  0.00  0.00    +0.000 C 
ATOM      7  C   UNL     1     -65.173 -60.573 -76.821  0.00  0.00    +0.000 C 
ATOM      8  C   UNL     1     -64.590 -57.954 -79.184  0.00  0.00    +0.000 C 
ATOM      9  C   UNL     1     -66.489 -61.234 -79.117  0.00  0.00    +0.000 C 
ATOM     10  C   UNL     1     -66.171 -61.169 -77.637  0.00  0.00    +0.000 C 
ENDROOT
BRANCH   7  11
ATOM     11  C   UNL     1     -65.159 -60.801 -75.545  0.00  0.00    +0.000 C 
ATOM     12  C   UNL     1     -65.130 -61.065 -74.035  0.00  0.00    +0.000 C 
BRANCH  12  13
ATOM     13  C   UNL     1     -65.099 -61.282 -72.755  0.00  0.00    +0.000 A 
ATOM     14  C   UNL     1     -64.236 -62.296 -72.229  0.00  0.00    +0.000 A 
ATOM     15  C   UNL     1     -65.937 -60.608 -71.712  0.00  0.00    +0.000 A 
ATOM     16  C   UNL     1     -64.009 -62.796 -70.914  0.00  0.00    +0.000 A 
ATOM     17  C   UNL     1     -64.869 -62.079 -70.035  0.00  0.00    +0.000 A 
ATOM     18  C   UNL     1     -65.809 -61.038 -70.284  0.00  0.00    +0.000 A 
ATOM     19  C   UNL     1     -66.798 -59.620 -72.015  0.00  0.00    +0.000 C 
BRANCH  16  20
ATOM     20  O   UNL     1     -62.776 -63.233 -70.526  0.00  0.00    +0.000 OA
ATOM     21  H   UNL     1     -62.239 -62.504 -70.173  0.00  0.00    +0.000 HD
ENDBRANCH  16  20
BRANCH  18  22
ATOM     22  O   UNL     1     -66.544 -60.452 -69.282  0.00  0.00    +0.000 OA
ATOM     23  H   UNL     1     -66.960 -61.137 -68.724  0.00  0.00    +0.000 HD
ENDBRANCH  18  22
ENDBRANCH  12  13
ENDBRANCH   7  11
BRANCH   2  24
ATOM     24  C   UNL     1     -62.544 -59.618 -81.065  0.00  0.00    +0.000 C 
ATOM     25  C   UNL     1     -63.151 -60.409 -82.196  0.00  0.00    +0.000 C 
BRANCH  24  26
ATOM     26  C   UNL     1     -61.432 -58.806 -81.420  0.00  0.00    +0.000 C 
ATOM     27  C   UNL     1     -60.228 -57.929 -81.786  0.00  0.00    +0.000 C 
BRANCH  27  28
ATOM     28  C   UNL     1     -59.022 -57.049 -82.138  0.00  0.00    +0.000 C 
BRANCH  28  29
ATOM     29  C   UNL     1     -57.871 -56.213 -82.476  0.00  0.00    +0.000 C 
ATOM     30  C   UNL     1     -58.273 -54.830 -83.004  0.00  0.00    +0.000 C 
ATOM     31  C   UNL     1     -56.864 -56.080 -81.328  0.00  0.00    +0.000 C 
BRANCH  29  32
ATOM     32  O   UNL     1     -57.155 -56.822 -83.527  0.00  0.00    +0.000 OA
ATOM     33  H   UNL     1     -57.370 -56.192 -84.231  0.00  0.00    +0.000 HD
ENDBRANCH  29  32
ENDBRANCH  28  29
ENDBRANCH  27  28
ENDBRANCH  24  26
ENDBRANCH   2  24
TORSDOF 9
ENDMDL
MODEL 2
REMARK VINA RESULT:      -6.2     51.048     58.900
REMARK  Name = Calcitriol.pdbqt.pdb
REMARK  9 active torsions:
REMARK  status: ('A' for Active; 'I' for Inactive)
REMARK    1  A    between atoms: C_2  and  C_24
REMARK    2  A    between atoms: C_7  and  C_11
REMARK    3  A    between atoms: C_12  and  C_13
REMARK    4  A    between atoms: C_16  and  O_20
REMARK    5  A    between atoms: C_18  and  O_22
REMARK    6  A    between atoms: C_24  and  C_26
REMARK    7  A    between atoms: C_27  and  C_28
REMARK    8  A    between atoms: C_28  and  C_29
REMARK    9  A    between atoms: C_29  and  O_32
REMARK                            x       y       z     vdW  Elec       q    Type
REMARK                         _______ _______ _______ _____ _____    ______ ____
ROOT
ATOM      1  C   UNL     1     -75.687 -54.923 -19.743  0.00  0.00    +0.000 C 
ATOM      2  C   UNL     1     -76.875 -55.662 -19.133  0.00  0.00    +0.000 C 
ATOM      3  C   UNL     1     -75.283 -55.864 -21.004  0.00  0.00    +0.000 C 
ATOM      4  C   UNL     1     -77.236 -56.761 -19.968  0.00  0.00    +0.000 C 
ATOM      5  C   UNL     1     -76.286 -56.875 -21.128  0.00  0.00    +0.000 C 
ATOM      6  C   UNL     1     -74.501 -54.854 -18.874  0.00  0.00    +0.000 C 
ATOM      7  C   UNL     1     -73.876 -56.154 -21.306  0.00  0.00    +0.000 C 
ATOM      8  C   UNL     1     -76.126 -53.552 -20.332  0.00  0.00    +0.000 C 
ATOM      9  C   UNL     1     -73.021 -55.190 -18.901  0.00  0.00    +0.000 C 
ATOM     10  C   UNL     1     -72.956 -55.826 -20.275  0.00  0.00    +0.000 C 
ENDROOT
BRANCH   7  11
ATOM     11  C   UNL     1     -73.469 -56.794 -22.357  0.00  0.00    +0.000 C 
ATOM     12  C   UNL     1     -73.001 -57.556 -23.602  0.00  0.00    +0.000 C 
BRANCH  12  13
ATOM     13  C   UNL     1     -72.613 -58.202 -24.660  0.00  0.00    +0.000 A 
ATOM     14  C   UNL     1     -72.457 -57.503 -25.900  0.00  0.00    +0.000 A 
ATOM     15  C   UNL     1     -72.347 -59.672 -24.764  0.00  0.00    +0.000 A 
ATOM     16  C   UNL     1     -72.102 -57.919 -27.215  0.00  0.00    +0.000 A 
ATOM     17  C   UNL     1     -71.888 -59.326 -27.170  0.00  0.00    +0.000 A 
ATOM     18  C   UNL     1     -71.969 -60.252 -26.091  0.00  0.00    +0.000 A 
ATOM     19  C   UNL     1     -72.430 -60.492 -23.700  0.00  0.00    +0.000 C 
BRANCH  16  20
ATOM     20  O   UNL     1     -71.390 -57.104 -28.047  0.00  0.00    +0.000 OA
ATOM     21  H   UNL     1     -70.491 -57.445 -28.190  0.00  0.00    +0.000 HD
ENDBRANCH  16  20
BRANCH  18  22
ATOM     22  O   UNL     1     -71.706 -61.592 -26.248  0.00  0.00    +0.000 OA
ATOM     23  H   UNL     1     -72.317 -61.982 -26.902  0.00  0.00    +0.000 HD
ENDBRANCH  18  22
ENDBRANCH  12  13
ENDBRANCH   7  11
BRANCH   2  24
ATOM     24  C   UNL     1     -77.620 -55.226 -17.995  0.00  0.00    +0.000 C 
ATOM     25  C   UNL     1     -78.549 -54.040 -18.026  0.00  0.00    +0.000 C 
BRANCH  24  26
ATOM     26  C   UNL     1     -77.382 -55.778 -16.706  0.00  0.00    +0.000 C 
ATOM     27  C   UNL     1     -77.129 -56.359 -15.310  0.00  0.00    +0.000 C 
BRANCH  27  28
ATOM     28  C   UNL     1     -76.876 -56.928 -13.908  0.00  0.00    +0.000 C 
BRANCH  28  29
ATOM     29  C   UNL     1     -76.637 -57.473 -12.572  0.00  0.00    +0.000 C 
ATOM     30  C   UNL     1     -75.880 -56.502 -11.659  0.00  0.00    +0.000 C 
ATOM     31  C   UNL     1     -77.914 -57.973 -11.887  0.00  0.00    +0.000 C 
BRANCH  29  32
ATOM     32  O   UNL     1     -75.807 -58.608 -12.681  0.00  0.00    +0.000 OA
ATOM     33  H   UNL     1     -74.991 -58.162 -12.952  0.00  0.00    +0.000 HD
ENDBRANCH  29  32
ENDBRANCH  28  29
ENDBRANCH  27  28
ENDBRANCH  24  26
ENDBRANCH   2  24
TORSDOF 9
ENDMDL
MODEL 3
REMARK VINA RESULT:      -6.2     44.303     51.350
REMARK  Name = Calcitriol.pdbqt.pdb
REMARK  9 active torsions:
REMARK  status: ('A' for Active; 'I' for Inactive)
REMARK    1  A    between atoms: C_2  and  C_24
REMARK    2  A    between atoms: C_7  and  C_11
REMARK    3  A    between atoms: C_12  and  C_13
REMARK    4  A    between atoms: C_16  and  O_20
REMARK    5  A    between atoms: C_18  and  O_22
REMARK    6  A    between atoms: C_24  and  C_26
REMARK    7  A    between atoms: C_27  and  C_28
REMARK    8  A    between atoms: C_28  and  C_29
REMARK    9  A    between atoms: C_29  and  O_32
REMARK                            x       y       z     vdW  Elec       q    Type
REMARK                         _______ _______ _______ _____ _____    ______ ____
ROOT
ATOM      1  C   UNL     1     -72.874 -58.742 -27.462  0.00  0.00    +0.000 C 
ATOM      2  C   UNL     1     -71.863 -57.606 -27.586  0.00  0.00    +0.000 C 
ATOM      3  C   UNL     1     -72.447 -59.458 -26.068  0.00  0.00    +0.000 C 
ATOM      4  C   UNL     1     -71.072 -57.536 -26.401  0.00  0.00    +0.000 C 
ATOM      5  C   UNL     1     -71.441 -58.647 -25.456  0.00  0.00    +0.000 C 
ATOM      6  C   UNL     1     -72.766 -59.770 -28.511  0.00  0.00    +0.000 C 
ATOM      7  C   UNL     1     -72.411 -60.921 -25.953  0.00  0.00    +0.000 C 
ATOM      8  C   UNL     1     -74.312 -58.189 -27.258  0.00  0.00    +0.000 C 
ATOM      9  C   UNL     1     -72.604 -61.273 -28.651  0.00  0.00    +0.000 C 
ATOM     10  C   UNL     1     -72.468 -61.626 -27.184  0.00  0.00    +0.000 C 
ENDROOT
BRANCH   7  11
ATOM     11  C   UNL     1     -72.198 -61.564 -24.848  0.00  0.00    +0.000 C 
ATOM     12  C   UNL     1     -71.946 -62.337 -23.548  0.00  0.00    +0.000 C 
BRANCH  12  13
ATOM     13  C   UNL     1     -71.729 -62.999 -22.452  0.00  0.00    +0.000 A 
ATOM     14  C   UNL     1     -70.969 -62.396 -21.399  0.00  0.00    +0.000 A 
ATOM     15  C   UNL     1     -72.148 -64.407 -22.158  0.00  0.00    +0.000 A 
ATOM     16  C   UNL     1     -70.529 -62.861 -20.126  0.00  0.00    +0.000 A 
ATOM     17  C   UNL     1     -70.986 -64.202 -19.984  0.00  0.00    +0.000 A 
ATOM     18  C   UNL     1     -71.749 -65.030 -20.857  0.00  0.00    +0.000 A 
ATOM     19  C   UNL     1     -72.881 -65.131 -23.024  0.00  0.00    +0.000 C 
BRANCH  16  20
ATOM     20  O   UNL     1     -70.424 -62.015 -19.060  0.00  0.00    +0.000 OA
ATOM     21  H   UNL     1     -71.005 -61.243 -19.165  0.00  0.00    +0.000 HD
ENDBRANCH  16  20
BRANCH  18  22
ATOM     22  O   UNL     1     -72.111 -66.314 -20.528  0.00  0.00    +0.000 OA
ATOM     23  H   UNL     1     -72.281 -66.381 -19.568  0.00  0.00    +0.000 HD
ENDBRANCH  18  22
ENDBRANCH  12  13
ENDBRANCH   7  11
BRANCH   2  24
ATOM     24  C   UNL     1     -71.823 -56.651 -28.648  0.00  0.00    +0.000 C 
ATOM     25  C   UNL     1     -72.653 -55.393 -28.653  0.00  0.00    +0.000 C 
BRANCH  24  26
ATOM     26  C   UNL     1     -71.130 -56.927 -29.858  0.00  0.00    +0.000 C 
ATOM     27  C   UNL     1     -70.375 -57.239 -31.157  0.00  0.00    +0.000 C 
BRANCH  27  28
ATOM     28  C   UNL     1     -69.614 -57.560 -32.449  0.00  0.00    +0.000 C 
BRANCH  28  29
ATOM     29  C   UNL     1     -68.886 -57.864 -33.681  0.00  0.00    +0.000 C 
ATOM     30  C   UNL     1     -69.315 -56.982 -34.859  0.00  0.00    +0.000 C 
ATOM     31  C   UNL     1     -67.363 -57.828 -33.506  0.00  0.00    +0.000 C 
BRANCH  29  32
ATOM     32  O   UNL     1     -69.181 -59.185 -34.074  0.00  0.00    +0.000 OA
ATOM     33  H   UNL     1     -69.068 -59.078 -35.030  0.00  0.00    +0.000 HD
ENDBRANCH  29  32
ENDBRANCH  28  29
ENDBRANCH  27  28
ENDBRANCH  24  26
ENDBRANCH   2  24
TORSDOF 9
ENDMDL
MODEL 4
REMARK VINA RESULT:      -6.0     57.800     61.417
REMARK  Name = Calcitriol.pdbqt.pdb
REMARK  9 active torsions:
REMARK  status: ('A' for Active; 'I' for Inactive)
REMARK    1  A    between atoms: C_2  and  C_24
REMARK    2  A    between atoms: C_7  and  C_11
REMARK    3  A    between atoms: C_12  and  C_13
REMARK    4  A    between atoms: C_16  and  O_20
REMARK    5  A    between atoms: C_18  and  O_22
REMARK    6  A    between atoms: C_24  and  C_26
REMARK    7  A    between atoms: C_27  and  C_28
REMARK    8  A    between atoms: C_28  and  C_29
REMARK    9  A    between atoms: C_29  and  O_32
REMARK                            x       y       z     vdW  Elec       q    Type
REMARK                         _______ _______ _______ _____ _____    ______ ____
ROOT
ATOM      1  C   UNL     1     -63.685 -54.259 -16.870  0.00  0.00    +0.000 C 
ATOM      2  C   UNL     1     -64.166 -55.467 -16.071  0.00  0.00    +0.000 C 
ATOM      3  C   UNL     1     -65.046 -53.399 -17.082  0.00  0.00    +0.000 C 
ATOM      4  C   UNL     1     -65.536 -55.292 -15.715  0.00  0.00    +0.000 C 
ATOM      5  C   UNL     1     -66.074 -54.018 -16.305  0.00  0.00    +0.000 C 
ATOM      6  C   UNL     1     -63.178 -54.581 -18.213  0.00  0.00    +0.000 C 
ATOM      7  C   UNL     1     -65.348 -52.776 -18.377  0.00  0.00    +0.000 C 
ATOM      8  C   UNL     1     -62.726 -53.376 -16.021  0.00  0.00    +0.000 C 
ATOM      9  C   UNL     1     -63.399 -54.187 -19.663  0.00  0.00    +0.000 C 
ATOM     10  C   UNL     1     -64.555 -53.227 -19.465  0.00  0.00    +0.000 C 
ENDROOT
BRANCH   7  11
ATOM     11  C   UNL     1     -66.348 -51.980 -18.591  0.00  0.00    +0.000 C 
ATOM     12  C   UNL     1     -67.541 -51.049 -18.840  0.00  0.00    +0.000 C 
BRANCH  12  13
ATOM     13  C   UNL     1     -68.555 -50.264 -19.044  0.00  0.00    +0.000 A 
ATOM     14  C   UNL     1     -69.251 -50.317 -20.295  0.00  0.00    +0.000 A 
ATOM     15  C   UNL     1     -69.082 -49.219 -18.110  0.00  0.00    +0.000 A 
ATOM     16  C   UNL     1     -70.343 -49.579 -20.834  0.00  0.00    +0.000 A 
ATOM     17  C   UNL     1     -70.733 -48.625 -19.852  0.00  0.00    +0.000 A 
ATOM     18  C   UNL     1     -70.227 -48.361 -18.547  0.00  0.00    +0.000 A 
ATOM     19  C   UNL     1     -68.564 -49.030 -16.883  0.00  0.00    +0.000 C 
BRANCH  16  20
ATOM     20  O   UNL     1     -71.245 -50.161 -21.677  0.00  0.00    +0.000 OA
ATOM     21  H   UNL     1     -71.843 -50.757 -21.197  0.00  0.00    +0.000 HD
ENDBRANCH  16  20
BRANCH  18  22
ATOM     22  O   UNL     1     -70.758 -47.391 -17.731  0.00  0.00    +0.000 OA
ATOM     23  H   UNL     1     -70.089 -47.086 -17.089  0.00  0.00    +0.000 HD
ENDBRANCH  18  22
ENDBRANCH  12  13
ENDBRANCH   7  11
BRANCH   2  24
ATOM     24  C   UNL     1     -63.334 -56.531 -15.604  0.00  0.00    +0.000 C 
ATOM     25  C   UNL     1     -61.949 -56.786 -16.140  0.00  0.00    +0.000 C 
BRANCH  24  26
ATOM     26  C   UNL     1     -63.841 -57.531 -14.730  0.00  0.00    +0.000 C 
ATOM     27  C   UNL     1     -64.403 -58.610 -13.796  0.00  0.00    +0.000 C 
BRANCH  27  28
ATOM     28  C   UNL     1     -64.978 -59.687 -12.867  0.00  0.00    +0.000 C 
BRANCH  28  29
ATOM     29  C   UNL     1     -65.523 -60.712 -11.978  0.00  0.00    +0.000 C 
ATOM     30  C   UNL     1     -64.464 -61.715 -11.505  0.00  0.00    +0.000 C 
ATOM     31  C   UNL     1     -66.288 -60.131 -10.784  0.00  0.00    +0.000 C 
BRANCH  29  32
ATOM     32  O   UNL     1     -66.472 -61.477 -12.688  0.00  0.00    +0.000 OA
ATOM     33  H   UNL     1     -66.840 -60.771 -13.240  0.00  0.00    +0.000 HD
ENDBRANCH  29  32
ENDBRANCH  28  29
ENDBRANCH  27  28
ENDBRANCH  24  26
ENDBRANCH   2  24
TORSDOF 9
ENDMDL
MODEL 5
REMARK VINA RESULT:      -5.9     38.079     43.812
REMARK  Name = Calcitriol.pdbqt.pdb
REMARK  9 active torsions:
REMARK  status: ('A' for Active; 'I' for Inactive)
REMARK    1  A    between atoms: C_2  and  C_24
REMARK    2  A    between atoms: C_7  and  C_11
REMARK    3  A    between atoms: C_12  and  C_13
REMARK    4  A    between atoms: C_16  and  O_20
REMARK    5  A    between atoms: C_18  and  O_22
REMARK    6  A    between atoms: C_24  and  C_26
REMARK    7  A    between atoms: C_27  and  C_28
REMARK    8  A    between atoms: C_28  and  C_29
REMARK    9  A    between atoms: C_29  and  O_32
REMARK                            x       y       z     vdW  Elec       q    Type
REMARK                         _______ _______ _______ _____ _____    ______ ____
ROOT
ATOM      1  C   UNL     1     -65.683 -46.354 -37.002  0.00  0.00    +0.000 C 
ATOM      2  C   UNL     1     -64.559 -46.998 -37.808  0.00  0.00    +0.000 C 
ATOM      3  C   UNL     1     -65.276 -46.701 -35.469  0.00  0.00    +0.000 C 
ATOM      4  C   UNL     1     -63.560 -47.500 -36.922  0.00  0.00    +0.000 C 
ATOM      5  C   UNL     1     -63.976 -47.298 -35.491  0.00  0.00    +0.000 C 
ATOM      6  C   UNL     1     -67.012 -46.946 -37.227  0.00  0.00    +0.000 C 
ATOM      7  C   UNL     1     -66.290 -47.136 -34.500  0.00  0.00    +0.000 C 
ATOM      8  C   UNL     1     -65.646 -44.805 -37.134  0.00  0.00    +0.000 C 
ATOM      9  C   UNL     1     -68.158 -47.558 -36.443  0.00  0.00    +0.000 C 
ATOM     10  C   UNL     1     -67.538 -47.516 -35.061  0.00  0.00    +0.000 C 
ENDROOT
BRANCH   7  11
ATOM     11  C   UNL     1     -66.066 -47.316 -33.236  0.00  0.00    +0.000 C 
ATOM     12  C   UNL     1     -65.809 -47.517 -31.738  0.00  0.00    +0.000 C 
BRANCH  12  13
ATOM     13  C   UNL     1     -65.599 -47.682 -30.467  0.00  0.00    +0.000 A 
ATOM     14  C   UNL     1     -65.279 -48.985 -29.965  0.00  0.00    +0.000 A 
ATOM     15  C   UNL     1     -65.708 -46.639 -29.399  0.00  0.00    +0.000 A 
ATOM     16  C   UNL     1     -65.043 -49.493 -28.655  0.00  0.00    +0.000 A 
ATOM     17  C   UNL     1     -65.186 -48.405 -27.748  0.00  0.00    +0.000 A 
ATOM     18  C   UNL     1     -65.491 -47.032 -27.971  0.00  0.00    +0.000 A 
ATOM     19  C   UNL     1     -65.987 -45.353 -29.680  0.00  0.00    +0.000 C 
BRANCH  16  20
ATOM     20  O   UNL     1     -64.155 -50.506 -28.438  0.00  0.00    +0.000 OA
ATOM     21  H   UNL     1     -63.615 -50.677 -29.228  0.00  0.00    +0.000 HD
ENDBRANCH  16  20
BRANCH  18  22
ATOM     22  O   UNL     1     -65.570 -46.117 -26.948  0.00  0.00    +0.000 OA
ATOM     23  H   UNL     1     -65.737 -45.224 -27.305  0.00  0.00    +0.000 HD
ENDBRANCH  18  22
ENDBRANCH  12  13
ENDBRANCH   7  11
BRANCH   2  24
ATOM     24  C   UNL     1     -64.439 -46.957 -39.231  0.00  0.00    +0.000 C 
ATOM     25  C   UNL     1     -65.595 -47.220 -40.162  0.00  0.00    +0.000 C 
BRANCH  24  26
ATOM     26  C   UNL     1     -63.167 -46.850 -39.858  0.00  0.00    +0.000 C 
ATOM     27  C   UNL     1     -61.788 -46.743 -40.522  0.00  0.00    +0.000 C 
BRANCH  27  28
ATOM     28  C   UNL     1     -60.404 -46.643 -41.175  0.00  0.00    +0.000 C 
BRANCH  28  29
ATOM     29  C   UNL     1     -59.086 -46.545 -41.801  0.00  0.00    +0.000 C 
ATOM     30  C   UNL     1     -59.161 -46.388 -43.324  0.00  0.00    +0.000 C 
ATOM     31  C   UNL     1     -58.207 -45.449 -41.188  0.00  0.00    +0.000 C 
BRANCH  29  32
ATOM     32  O   UNL     1     -58.384 -47.748 -41.582  0.00  0.00    +0.000 OA
ATOM     33  H   UNL     1     -58.809 -48.013 -40.753  0.00  0.00    +0.000 HD
ENDBRANCH  29  32
ENDBRANCH  28  29
ENDBRANCH  27  28
ENDBRANCH  24  26
ENDBRANCH   2  24
TORSDOF 9
ENDMDL
MODEL 6
REMARK VINA RESULT:      -5.9     40.438     47.397
REMARK  Name = Calcitriol.pdbqt.pdb
REMARK  9 active torsions:
REMARK  status: ('A' for Active; 'I' for Inactive)
REMARK    1  A    between atoms: C_2  and  C_24
REMARK    2  A    between atoms: C_7  and  C_11
REMARK    3  A    between atoms: C_12  and  C_13
REMARK    4  A    between atoms: C_16  and  O_20
REMARK    5  A    between atoms: C_18  and  O_22
REMARK    6  A    between atoms: C_24  and  C_26
REMARK    7  A    between atoms: C_27  and  C_28
REMARK    8  A    between atoms: C_28  and  C_29
REMARK    9  A    between atoms: C_29  and  O_32
REMARK                            x       y       z     vdW  Elec       q    Type
REMARK                         _______ _______ _______ _____ _____    ______ ____
ROOT
ATOM      1  C   UNL     1     -70.093 -56.515 -31.817  0.00  0.00    +0.000 C 
ATOM      2  C   UNL     1     -71.056 -56.784 -32.970  0.00  0.00    +0.000 C 
ATOM      3  C   UNL     1     -70.860 -57.166 -30.543  0.00  0.00    +0.000 C 
ATOM      4  C   UNL     1     -72.134 -57.600 -32.513  0.00  0.00    +0.000 C 
ATOM      5  C   UNL     1     -72.008 -57.861 -31.038  0.00  0.00    +0.000 C 
ATOM      6  C   UNL     1     -69.899 -55.089 -31.507  0.00  0.00    +0.000 C 
ATOM      7  C   UNL     1     -70.897 -56.470 -29.251  0.00  0.00    +0.000 C 
ATOM      8  C   UNL     1     -68.771 -57.313 -31.998  0.00  0.00    +0.000 C 
ATOM      9  C   UNL     1     -69.989 -54.135 -30.329  0.00  0.00    +0.000 C 
ATOM     10  C   UNL     1     -70.503 -55.106 -29.286  0.00  0.00    +0.000 C 
ENDROOT
BRANCH   7  11
ATOM     11  C   UNL     1     -71.384 -56.975 -28.160  0.00  0.00    +0.000 C 
ATOM     12  C   UNL     1     -71.972 -57.567 -26.874  0.00  0.00    +0.000 C 
BRANCH  12  13
ATOM     13  C   UNL     1     -72.479 -58.069 -25.789  0.00  0.00    +0.000 A 
ATOM     14  C   UNL     1     -73.229 -57.230 -24.903  0.00  0.00    +0.000 A 
ATOM     15  C   UNL     1     -72.324 -59.474 -25.295  0.00  0.00    +0.000 A 
ATOM     16  C   UNL     1     -73.858 -57.458 -23.646  0.00  0.00    +0.000 A 
ATOM     17  C   UNL     1     -73.626 -58.818 -23.297  0.00  0.00    +0.000 A 
ATOM     18  C   UNL     1     -72.929 -59.856 -23.981  0.00  0.00    +0.000 A 
ATOM     19  C   UNL     1     -71.662 -60.411 -25.998  0.00  0.00    +0.000 C 
BRANCH  16  20
ATOM     20  O   UNL     1     -75.008 -56.808 -23.301  0.00  0.00    +0.000 OA
ATOM     21  H   UNL     1     -74.975 -56.496 -22.382  0.00  0.00    +0.000 HD
ENDBRANCH  16  20
BRANCH  18  22
ATOM     22  O   UNL     1     -72.827 -61.131 -23.478  0.00  0.00    +0.000 OA
ATOM     23  H   UNL     1     -72.211 -61.659 -24.022  0.00  0.00    +0.000 HD
ENDBRANCH  18  22
ENDBRANCH  12  13
ENDBRANCH   7  11
BRANCH   2  24
ATOM     24  C   UNL     1     -70.832 -56.422 -34.333  0.00  0.00    +0.000 C 
ATOM     25  C   UNL     1     -71.460 -55.212 -34.976  0.00  0.00    +0.000 C 
BRANCH  24  26
ATOM     26  C   UNL     1     -70.144 -57.294 -35.221  0.00  0.00    +0.000 C 
ATOM     27  C   UNL     1     -69.417 -58.242 -36.183  0.00  0.00    +0.000 C 
BRANCH  27  28
ATOM     28  C   UNL     1     -68.702 -59.198 -37.145  0.00  0.00    +0.000 C 
BRANCH  28  29
ATOM     29  C   UNL     1     -68.022 -60.108 -38.067  0.00  0.00    +0.000 C 
ATOM     30  C   UNL     1     -68.836 -61.373 -38.363  0.00  0.00    +0.000 C 
ATOM     31  C   UNL     1     -67.583 -59.431 -39.370  0.00  0.00    +0.000 C 
BRANCH  29  32
ATOM     32  O   UNL     1     -66.829 -60.562 -37.466  0.00  0.00    +0.000 OA
ATOM     33  H   UNL     1     -67.091 -60.465 -36.538  0.00  0.00    +0.000 HD
ENDBRANCH  29  32
ENDBRANCH  28  29
ENDBRANCH  27  28
ENDBRANCH  24  26
ENDBRANCH   2  24
TORSDOF 9
ENDMDL
MODEL 7
REMARK VINA RESULT:      -5.9      2.796      4.348
REMARK  Name = Calcitriol.pdbqt.pdb
REMARK  9 active torsions:
REMARK  status: ('A' for Active; 'I' for Inactive)
REMARK    1  A    between atoms: C_2  and  C_24
REMARK    2  A    between atoms: C_7  and  C_11
REMARK    3  A    between atoms: C_12  and  C_13
REMARK    4  A    between atoms: C_16  and  O_20
REMARK    5  A    between atoms: C_18  and  O_22
REMARK    6  A    between atoms: C_24  and  C_26
REMARK    7  A    between atoms: C_27  and  C_28
REMARK    8  A    between atoms: C_28  and  C_29
REMARK    9  A    between atoms: C_29  and  O_32
REMARK                            x       y       z     vdW  Elec       q    Type
REMARK                         _______ _______ _______ _____ _____    ______ ____
ROOT
ATOM      1  C   UNL     1     -64.437 -59.575 -79.285  0.00  0.00    +0.000 C 
ATOM      2  C   UNL     1     -63.100 -59.954 -79.917  0.00  0.00    +0.000 C 
ATOM      3  C   UNL     1     -64.207 -59.920 -77.715  0.00  0.00    +0.000 C 
ATOM      4  C   UNL     1     -62.169 -60.306 -78.895  0.00  0.00    +0.000 C 
ATOM      5  C   UNL     1     -62.829 -60.261 -77.544  0.00  0.00    +0.000 C 
ATOM      6  C   UNL     1     -65.576 -60.393 -79.732  0.00  0.00    +0.000 C 
ATOM      7  C   UNL     1     -65.253 -60.587 -76.930  0.00  0.00    +0.000 C 
ATOM      8  C   UNL     1     -64.680 -58.041 -79.374  0.00  0.00    +0.000 C 
ATOM      9  C   UNL     1     -66.688 -61.249 -79.154  0.00  0.00    +0.000 C 
ATOM     10  C   UNL     1     -66.305 -61.164 -77.691  0.00  0.00    +0.000 C 
ENDROOT
BRANCH   7  11
ATOM     11  C   UNL     1     -65.193 -60.789 -75.651  0.00  0.00    +0.000 C 
ATOM     12  C   UNL     1     -65.137 -61.026 -74.137  0.00  0.00    +0.000 C 
BRANCH  12  13
ATOM     13  C   UNL     1     -65.099 -61.229 -72.855  0.00  0.00    +0.000 A 
ATOM     14  C   UNL     1     -64.239 -62.243 -72.324  0.00  0.00    +0.000 A 
ATOM     15  C   UNL     1     -65.923 -60.538 -71.814  0.00  0.00    +0.000 A 
ATOM     16  C   UNL     1     -64.006 -62.731 -71.006  0.00  0.00    +0.000 A 
ATOM     17  C   UNL     1     -64.854 -61.998 -70.129  0.00  0.00    +0.000 A 
ATOM     18  C   UNL     1     -65.788 -60.953 -70.383  0.00  0.00    +0.000 A 
ATOM     19  C   UNL     1     -66.780 -59.547 -72.121  0.00  0.00    +0.000 C 
BRANCH  16  20
ATOM     20  O   UNL     1     -62.773 -63.173 -70.622  0.00  0.00    +0.000 OA
ATOM     21  H   UNL     1     -62.795 -63.542 -69.723  0.00  0.00    +0.000 HD
ENDBRANCH  16  20
BRANCH  18  22
ATOM     22  O   UNL     1     -66.512 -60.351 -69.382  0.00  0.00    +0.000 OA
ATOM     23  H   UNL     1     -65.987 -60.317 -68.558  0.00  0.00    +0.000 HD
ENDBRANCH  18  22
ENDBRANCH  12  13
ENDBRANCH   7  11
BRANCH   2  24
ATOM     24  C   UNL     1     -62.775 -59.816 -81.301  0.00  0.00    +0.000 C 
ATOM     25  C   UNL     1     -62.539 -58.482 -81.961  0.00  0.00    +0.000 C 
BRANCH  24  26
ATOM     26  C   UNL     1     -62.839 -60.929 -82.185  0.00  0.00    +0.000 C 
ATOM     27  C   UNL     1     -62.896 -62.136 -83.129  0.00  0.00    +0.000 C 
BRANCH  27  28
ATOM     28  C   UNL     1     -62.943 -63.349 -84.067  0.00  0.00    +0.000 C 
BRANCH  28  29
ATOM     29  C   UNL     1     -62.982 -64.505 -84.961  0.00  0.00    +0.000 C 
ATOM     30  C   UNL     1     -64.249 -64.547 -85.825  0.00  0.00    +0.000 C 
ATOM     31  C   UNL     1     -61.729 -64.636 -85.834  0.00  0.00    +0.000 C 
BRANCH  29  32
ATOM     32  O   UNL     1     -63.018 -65.683 -84.187  0.00  0.00    +0.000 OA
ATOM     33  H   UNL     1     -62.964 -65.278 -83.309  0.00  0.00    +0.000 HD
ENDBRANCH  29  32
ENDBRANCH  28  29
ENDBRANCH  27  28
ENDBRANCH  24  26
ENDBRANCH   2  24
TORSDOF 9
ENDMDL
MODEL 8
REMARK VINA RESULT:      -5.8     32.831     38.159
REMARK  Name = Calcitriol.pdbqt.pdb
REMARK  9 active torsions:
REMARK  status: ('A' for Active; 'I' for Inactive)
REMARK    1  A    between atoms: C_2  and  C_24
REMARK    2  A    between atoms: C_7  and  C_11
REMARK    3  A    between atoms: C_12  and  C_13
REMARK    4  A    between atoms: C_16  and  O_20
REMARK    5  A    between atoms: C_18  and  O_22
REMARK    6  A    between atoms: C_24  and  C_26
REMARK    7  A    between atoms: C_27  and  C_28
REMARK    8  A    between atoms: C_28  and  C_29
REMARK    9  A    between atoms: C_29  and  O_32
REMARK                            x       y       z     vdW  Elec       q    Type
REMARK                         _______ _______ _______ _____ _____    ______ ____
ROOT
ATOM      1  C   UNL     1     -67.445 -56.259 -41.624  0.00  0.00    +0.000 C 
ATOM      2  C   UNL     1     -68.641 -56.541 -42.528  0.00  0.00    +0.000 C 
ATOM      3  C   UNL     1     -67.930 -56.840 -40.187  0.00  0.00    +0.000 C 
ATOM      4  C   UNL     1     -69.611 -57.306 -41.815  0.00  0.00    +0.000 C 
ATOM      5  C   UNL     1     -69.172 -57.518 -40.392  0.00  0.00    +0.000 C 
ATOM      6  C   UNL     1     -67.157 -54.829 -41.423  0.00  0.00    +0.000 C 
ATOM      7  C   UNL     1     -67.670 -56.097 -38.948  0.00  0.00    +0.000 C 
ATOM      8  C   UNL     1     -66.211 -57.102 -42.053  0.00  0.00    +0.000 C 
ATOM      9  C   UNL     1     -66.969 -53.831 -40.295  0.00  0.00    +0.000 C 
ATOM     10  C   UNL     1     -67.264 -54.748 -39.125  0.00  0.00    +0.000 C 
ENDROOT
BRANCH   7  11
ATOM     11  C   UNL     1     -67.918 -56.547 -37.758  0.00  0.00    +0.000 C 
ATOM     12  C   UNL     1     -68.226 -57.076 -36.352  0.00  0.00    +0.000 C 
BRANCH  12  13
ATOM     13  C   UNL     1     -68.496 -57.526 -35.164  0.00  0.00    +0.000 A 
ATOM     14  C   UNL     1     -67.738 -58.618 -34.632  0.00  0.00    +0.000 A 
ATOM     15  C   UNL     1     -69.592 -57.059 -34.257  0.00  0.00    +0.000 A 
ATOM     16  C   UNL     1     -67.812 -59.354 -33.414  0.00  0.00    +0.000 A 
ATOM     17  C   UNL     1     -68.892 -58.813 -32.659  0.00  0.00    +0.000 A 
ATOM     18  C   UNL     1     -69.792 -57.746 -32.942  0.00  0.00    +0.000 A 
ATOM     19  C   UNL     1     -70.400 -56.034 -34.581  0.00  0.00    +0.000 C 
BRANCH  16  20
ATOM     20  O   UNL     1     -66.690 -59.852 -32.818  0.00  0.00    +0.000 OA
ATOM     21  H   UNL     1     -66.628 -60.815 -32.933  0.00  0.00    +0.000 HD
ENDBRANCH  16  20
BRANCH  18  22
ATOM     22  O   UNL     1     -70.776 -57.357 -32.064  0.00  0.00    +0.000 OA
ATOM     23  H   UNL     1     -71.436 -58.069 -31.961  0.00  0.00    +0.000 HD
ENDBRANCH  18  22
ENDBRANCH  12  13
ENDBRANCH   7  11
BRANCH   2  24
ATOM     24  C   UNL     1     -68.711 -56.235 -43.921  0.00  0.00    +0.000 C 
ATOM     25  C   UNL     1     -68.234 -57.180 -44.995  0.00  0.00    +0.000 C 
BRANCH  24  26
ATOM     26  C   UNL     1     -69.065 -54.934 -44.371  0.00  0.00    +0.000 C 
ATOM     27  C   UNL     1     -69.452 -53.536 -44.871  0.00  0.00    +0.000 C 
BRANCH  27  28
ATOM     28  C   UNL     1     -69.842 -52.144 -45.384  0.00  0.00    +0.000 C 
BRANCH  28  29
ATOM     29  C   UNL     1     -70.216 -50.818 -45.875  0.00  0.00    +0.000 C 
ATOM     30  C   UNL     1     -71.242 -50.873 -47.013  0.00  0.00    +0.000 C 
ATOM     31  C   UNL     1     -70.691 -49.875 -44.764  0.00  0.00    +0.000 C 
BRANCH  29  32
ATOM     32  O   UNL     1     -69.077 -50.195 -46.426  0.00  0.00    +0.000 OA
ATOM     33  H   UNL     1     -68.598 -50.991 -46.700  0.00  0.00    +0.000 HD
ENDBRANCH  29  32
ENDBRANCH  28  29
ENDBRANCH  27  28
ENDBRANCH  24  26
ENDBRANCH   2  24
TORSDOF 9
ENDMDL
MODEL 9
REMARK VINA RESULT:      -5.7      3.806     11.755
REMARK  Name = Calcitriol.pdbqt.pdb
REMARK  9 active torsions:
REMARK  status: ('A' for Active; 'I' for Inactive)
REMARK    1  A    between atoms: C_2  and  C_24
REMARK    2  A    between atoms: C_7  and  C_11
REMARK    3  A    between atoms: C_12  and  C_13
REMARK    4  A    between atoms: C_16  and  O_20
REMARK    5  A    between atoms: C_18  and  O_22
REMARK    6  A    between atoms: C_24  and  C_26
REMARK    7  A    between atoms: C_27  and  C_28
REMARK    8  A    between atoms: C_28  and  C_29
REMARK    9  A    between atoms: C_29  and  O_32
REMARK                            x       y       z     vdW  Elec       q    Type
REMARK                         _______ _______ _______ _____ _____    ______ ____
ROOT
ATOM      1  C   UNL     1     -66.649 -61.764 -71.672  0.00  0.00    +0.000 C 
ATOM      2  C   UNL     1     -65.531 -61.964 -70.653  0.00  0.00    +0.000 C 
ATOM      3  C   UNL     1     -65.843 -61.634 -73.076  0.00  0.00    +0.000 C 
ATOM      4  C   UNL     1     -64.284 -62.102 -71.331  0.00  0.00    +0.000 C 
ATOM      5  C   UNL     1     -64.468 -61.929 -72.813  0.00  0.00    +0.000 C 
ATOM      6  C   UNL     1     -67.407 -60.513 -71.507  0.00  0.00    +0.000 C 
ATOM      7  C   UNL     1     -66.222 -60.625 -74.071  0.00  0.00    +0.000 C 
ATOM      8  C   UNL     1     -67.537 -63.036 -71.783  0.00  0.00    +0.000 C 
ATOM      9  C   UNL     1     -67.823 -59.293 -72.309  0.00  0.00    +0.000 C 
ATOM     10  C   UNL     1     -67.100 -59.612 -73.602  0.00  0.00    +0.000 C 
ENDROOT
BRANCH   7  11
ATOM     11  C   UNL     1     -65.708 -60.536 -75.258  0.00  0.00    +0.000 C 
ATOM     12  C   UNL     1     -65.091 -60.443 -76.659  0.00  0.00    +0.000 C 
BRANCH  12  13
ATOM     13  C   UNL     1     -64.567 -60.374 -77.845  0.00  0.00    +0.000 A 
ATOM     14  C   UNL     1     -63.580 -61.333 -78.241  0.00  0.00    +0.000 A 
ATOM     15  C   UNL     1     -64.838 -59.330 -78.884  0.00  0.00    +0.000 A 
ATOM     16  C   UNL     1     -62.802 -61.499 -79.422  0.00  0.00    +0.000 A 
ATOM     17  C   UNL     1     -63.153 -60.443 -80.311  0.00  0.00    +0.000 A 
ATOM     18  C   UNL     1     -64.086 -59.375 -80.177  0.00  0.00    +0.000 A 
ATOM     19  C   UNL     1     -65.744 -58.353 -78.697  0.00  0.00    +0.000 C 
BRANCH  16  20
ATOM     20  O   UNL     1     -62.453 -62.739 -79.872  0.00  0.00    +0.000 OA
ATOM     21  H   UNL     1     -63.099 -63.075 -80.515  0.00  0.00    +0.000 HD
ENDBRANCH  16  20
BRANCH  18  22
ATOM     22  O   UNL     1     -64.297 -58.450 -81.171  0.00  0.00    +0.000 OA
ATOM     23  H   UNL     1     -64.638 -58.889 -81.974  0.00  0.00    +0.000 HD
ENDBRANCH  18  22
ENDBRANCH  12  13
ENDBRANCH   7  11
BRANCH   2  24
ATOM     24  C   UNL     1     -65.720 -62.154 -69.250  0.00  0.00    +0.000 C 
ATOM     25  C   UNL     1     -65.033 -63.245 -68.469  0.00  0.00    +0.000 C 
BRANCH  24  26
ATOM     26  C   UNL     1     -66.719 -61.435 -68.539  0.00  0.00    +0.000 C 
ATOM     27  C   UNL     1     -67.786 -60.656 -67.759  0.00  0.00    +0.000 C 
BRANCH  27  28
ATOM     28  C   UNL     1     -68.844 -59.875 -66.969  0.00  0.00    +0.000 C 
BRANCH  28  29
ATOM     29  C   UNL     1     -69.850 -59.131 -66.212  0.00  0.00    +0.000 C 
ATOM     30  C   UNL     1     -71.209 -59.841 -66.171  0.00  0.00    +0.000 C 
ATOM     31  C   UNL     1     -69.391 -58.762 -64.798  0.00  0.00    +0.000 C 
BRANCH  29  32
ATOM     32  O   UNL     1     -70.090 -57.900 -66.856  0.00  0.00    +0.000 OA
ATOM     33  H   UNL     1     -70.002 -57.317 -66.087  0.00  0.00    +0.000 HD
ENDBRANCH  29  32
ENDBRANCH  28  29
ENDBRANCH  27  28
ENDBRANCH  24  26
ENDBRANCH   2  24
TORSDOF 9
ENDMDL
