MODEL 1
REMARK VINA RESULT:      -7.1      0.000      0.000
REMARK  Name = 
REMARK  17 active torsions:
REMARK  status: ('A' for Active; 'I' for Inactive)
REMARK    1  A    between atoms: O_1  and  C_14
REMARK    2  A    between atoms: O_2  and  C_32
REMARK    3  A    between atoms: O_2  and  C_36
REMARK    4  A    between atoms: O_6  and  C_39
REMARK    5  A    between atoms: O_7  and  C_41
REMARK    6  A    between atoms: O_7  and  C_43
REMARK    7  A    between atoms: O_9  and  C_47
REMARK    8  A    between atoms: O_9  and  C_49
REMARK    9  A    between atoms: O_10  and  C_45
REMARK   10  A    between atoms: O_12  and  C_51
REMARK   11  A    between atoms: O_13  and  C_53
REMARK   12  A    between atoms: C_17  and  C_29
REMARK   13  A    between atoms: C_18  and  C_30
REMARK   14  A    between atoms: C_22  and  C_33
REMARK   15  A    between atoms: C_40  and  C_42
REMARK   16  A    between atoms: C_46  and  C_48
REMARK   17  A    between atoms: C_52  and  C_54
REMARK                            x       y       z     vdW  Elec       q    Type
REMARK                         _______ _______ _______ _____ _____    ______ ____
ROOT
ATOM      1  O   UNL     1     -50.903 -62.609 -71.929  0.00  0.00    +0.000 OA
ATOM      2  C   UNL     1     -51.919 -63.095 -72.802  0.00  0.00    +0.000 C 
ATOM      3  C   UNL     1     -53.173 -63.540 -72.044  0.00  0.00    +0.000 C 
ATOM      4  C   UNL     1     -53.114 -63.129 -70.581  0.00  0.00    +0.000 C 
ATOM      5  C   UNL     1     -51.312 -61.441 -71.207  0.00  0.00    +0.000 C 
ATOM      6  C   UNL     1     -52.577 -61.701 -70.355  0.00  0.00    +0.000 C 
ATOM      7  C   UNL     1     -50.130 -61.030 -70.330  0.00  0.00    +0.000 C 
ENDROOT
BRANCH   4   8
ATOM      8  O   UNL     1     -54.347 -63.380 -69.916  0.00  0.00    +0.000 OA
ATOM      9  H   UNL     1     -54.148 -64.017 -69.198  0.00  0.00    +0.000 HD
ENDBRANCH   4   8
BRANCH   2  10
ATOM     10  O   UNL     1     -51.441 -64.132 -73.659  0.00  0.00    +0.000 OA
BRANCH  10  29
ATOM     11  C   UNL     1     -48.308 -61.416 -80.243  0.00  0.00    +0.000 C 
ATOM     12  C   UNL     1     -48.877 -61.949 -78.900  0.00  0.00    +0.000 C 
ATOM     13  C   UNL     1     -49.117 -60.838 -77.846  0.00  0.00    +0.000 C 
ATOM     14  C   UNL     1     -49.079 -60.198 -80.826  0.00  0.00    +0.000 C 
ATOM     15  C   UNL     1     -49.703 -61.385 -76.480  0.00  0.00    +0.000 C 
ATOM     16  C   UNL     1     -48.849 -62.595 -75.977  0.00  0.00    +0.000 C 
ATOM     17  C   UNL     1     -49.954 -59.700 -78.466  0.00  0.00    +0.000 C 
ATOM     18  C   UNL     1     -49.304 -59.130 -79.728  0.00  0.00    +0.000 C 
ATOM     19  C   UNL     1     -48.087 -59.708 -81.928  0.00  0.00    +0.000 C 
ATOM     20  C   UNL     1     -47.991 -63.060 -78.317  0.00  0.00    +0.000 C 
ATOM     21  C   UNL     1     -46.850 -60.929 -80.177  0.00  0.00    +0.000 C 
ATOM     22  C   UNL     1     -48.614 -63.657 -77.066  0.00  0.00    +0.000 C 
ATOM     23  C   UNL     1     -46.698 -59.874 -81.280  0.00  0.00    +0.000 C 
ATOM     24  C   UNL     1     -51.191 -61.813 -76.612  0.00  0.00    +0.000 C 
ATOM     25  C   UNL     1     -49.449 -63.271 -74.727  0.00  0.00    +0.000 C 
ATOM     26  C   UNL     1     -50.436 -60.601 -81.439  0.00  0.00    +0.000 C 
ATOM     27  C   UNL     1     -49.608 -60.242 -75.430  0.00  0.00    +0.000 C 
ATOM     28  C   UNL     1     -51.753 -62.481 -75.357  0.00  0.00    +0.000 C 
ATOM     29  C   UNL     1     -50.915 -63.678 -74.910  0.00  0.00    +0.000 C 
BRANCH  19  32
ATOM     30  O   UNL     1     -48.128 -56.096 -82.908  0.00  0.00    +0.000 OA
ATOM     31  O   UNL     1     -49.886 -55.911 -84.373  0.00  0.00    +0.000 OA
ATOM     32  C   UNL     1     -48.357 -58.362 -82.544  0.00  0.00    +0.000 C 
ATOM     33  C   UNL     1     -47.545 -57.175 -82.178  0.00  0.00    +0.000 C 
ATOM     34  C   UNL     1     -49.324 -57.999 -83.388  0.00  0.00    +0.000 C 
ATOM     35  C   UNL     1     -49.175 -56.566 -83.634  0.00  0.00    +0.000 C 
ENDBRANCH  19  32
BRANCH  11  36
ATOM     36  O   UNL     1     -48.318 -62.488 -81.202  0.00  0.00    +0.000 OA
ATOM     37  H   UNL     1     -49.215 -62.567 -81.569  0.00  0.00    +0.000 HD
ENDBRANCH  11  36
ENDBRANCH  10  29
ENDBRANCH   2  10
BRANCH   6  38
ATOM     38  O   UNL     1     -53.470 -60.583 -70.357  0.00  0.00    +0.000 OA
BRANCH  38  40
ATOM     39  O   UNL     1     -54.575 -58.674 -69.481  0.00  0.00    +0.000 OA
ATOM     40  C   UNL     1     -53.970 -59.929 -69.200  0.00  0.00    +0.000 C 
ATOM     41  C   UNL     1     -53.005 -59.835 -68.022  0.00  0.00    +0.000 C 
ATOM     42  C   UNL     1     -53.231 -58.581 -67.182  0.00  0.00    +0.000 C 
ATOM     43  C   UNL     1     -55.454 -58.270 -68.414  0.00  0.00    +0.000 C 
ATOM     44  C   UNL     1     -54.702 -58.133 -67.066  0.00  0.00    +0.000 C 
ATOM     45  C   UNL     1     -56.075 -56.941 -68.836  0.00  0.00    +0.000 C 
BRANCH  42  46
ATOM     46  O   UNL     1     -52.606 -58.706 -65.905  0.00  0.00    +0.000 OA
ATOM     47  H   UNL     1     -52.926 -59.525 -65.488  0.00  0.00    +0.000 HD
ENDBRANCH  42  46
BRANCH  44  48
ATOM     48  O   UNL     1     -55.473 -58.645 -65.972  0.00  0.00    +0.000 OA
BRANCH  48  50
ATOM     49  O   UNL     1     -57.627 -59.352 -65.359  0.00  0.00    +0.000 OA
ATOM     50  C   UNL     1     -56.533 -59.554 -66.245  0.00  0.00    +0.000 C 
ATOM     51  C   UNL     1     -55.968 -60.963 -66.032  0.00  0.00    +0.000 C 
ATOM     52  C   UNL     1     -57.043 -61.958 -65.601  0.00  0.00    +0.000 C 
ATOM     53  C   UNL     1     -58.782 -60.138 -65.706  0.00  0.00    +0.000 C 
ATOM     54  C   UNL     1     -58.414 -61.564 -66.156  0.00  0.00    +0.000 C 
ATOM     55  C   UNL     1     -59.668 -60.160 -64.465  0.00  0.00    +0.000 C 
BRANCH  52  56
ATOM     56  O   UNL     1     -56.693 -63.257 -66.094  0.00  0.00    +0.000 OA
ATOM     57  H   UNL     1     -57.067 -63.341 -66.989  0.00  0.00    +0.000 HD
ENDBRANCH  52  56
BRANCH  54  58
ATOM     58  O   UNL     1     -58.345 -61.602 -67.593  0.00  0.00    +0.000 OA
ATOM     59  H   UNL     1     -58.018 -60.721 -67.866  0.00  0.00    +0.000 HD
ENDBRANCH  54  58
ENDBRANCH  48  50
ENDBRANCH  44  48
ENDBRANCH  38  40
ENDBRANCH   6  38
TORSDOF 12
ENDMDL
MODEL 2
REMARK VINA RESULT:      -7.0     38.343     44.789
REMARK  Name = 
REMARK  17 active torsions:
REMARK  status: ('A' for Active; 'I' for Inactive)
REMARK    1  A    between atoms: O_1  and  C_14
REMARK    2  A    between atoms: O_2  and  C_32
REMARK    3  A    between atoms: O_2  and  C_36
REMARK    4  A    between atoms: O_6  and  C_39
REMARK    5  A    between atoms: O_7  and  C_41
REMARK    6  A    between atoms: O_7  and  C_43
REMARK    7  A    between atoms: O_9  and  C_47
REMARK    8  A    between atoms: O_9  and  C_49
REMARK    9  A    between atoms: O_10  and  C_45
REMARK   10  A    between atoms: O_12  and  C_51
REMARK   11  A    between atoms: O_13  and  C_53
REMARK   12  A    between atoms: C_17  and  C_29
REMARK   13  A    between atoms: C_18  and  C_30
REMARK   14  A    between atoms: C_22  and  C_33
REMARK   15  A    between atoms: C_40  and  C_42
REMARK   16  A    between atoms: C_46  and  C_48
REMARK   17  A    between atoms: C_52  and  C_54
REMARK                            x       y       z     vdW  Elec       q    Type
REMARK                         _______ _______ _______ _____ _____    ______ ____
ROOT
ATOM      1  O   UNL     1     -64.137 -44.936 -38.779  0.00  0.00    +0.000 OA
ATOM      2  C   UNL     1     -63.886 -46.312 -38.507  0.00  0.00    +0.000 C 
ATOM      3  C   UNL     1     -62.900 -46.932 -39.501  0.00  0.00    +0.000 C 
ATOM      4  C   UNL     1     -62.253 -45.870 -40.378  0.00  0.00    +0.000 C 
ATOM      5  C   UNL     1     -62.959 -44.129 -38.658  0.00  0.00    +0.000 C 
ATOM      6  C   UNL     1     -61.835 -44.599 -39.612  0.00  0.00    +0.000 C 
ATOM      7  C   UNL     1     -63.378 -42.691 -38.963  0.00  0.00    +0.000 C 
ENDROOT
BRANCH   4   8
ATOM      8  O   UNL     1     -61.211 -46.416 -41.178  0.00  0.00    +0.000 OA
ATOM      9  H   UNL     1     -60.415 -45.871 -41.002  0.00  0.00    +0.000 HD
ENDBRANCH   4   8
BRANCH   2  10
ATOM     10  O   UNL     1     -65.091 -47.074 -38.434  0.00  0.00    +0.000 OA
BRANCH  10  29
ATOM     11  C   UNL     1     -67.372 -49.026 -31.256  0.00  0.00    +0.000 C 
ATOM     12  C   UNL     1     -66.976 -48.615 -32.700  0.00  0.00    +0.000 C 
ATOM     13  C   UNL     1     -66.857 -47.082 -32.897  0.00  0.00    +0.000 C 
ATOM     14  C   UNL     1     -66.525 -48.345 -30.143  0.00  0.00    +0.000 C 
ATOM     15  C   UNL     1     -66.448 -46.668 -34.369  0.00  0.00    +0.000 C 
ATOM     16  C   UNL     1     -67.367 -47.395 -35.406  0.00  0.00    +0.000 C 
ATOM     17  C   UNL     1     -65.942 -46.484 -31.809  0.00  0.00    +0.000 C 
ATOM     18  C   UNL     1     -66.428 -46.821 -30.399  0.00  0.00    +0.000 C 
ATOM     19  C   UNL     1     -67.371 -48.675 -28.871  0.00  0.00    +0.000 C 
ATOM     20  C   UNL     1     -67.936 -49.218 -33.737  0.00  0.00    +0.000 C 
ATOM     21  C   UNL     1     -68.823 -48.694 -30.866  0.00  0.00    +0.000 C 
ATOM     22  C   UNL     1     -67.475 -48.909 -35.152  0.00  0.00    +0.000 C 
ATOM     23  C   UNL     1     -68.830 -48.515 -29.343  0.00  0.00    +0.000 C 
ATOM     24  C   UNL     1     -64.958 -46.991 -34.674  0.00  0.00    +0.000 C 
ATOM     25  C   UNL     1     -66.930 -47.153 -36.865  0.00  0.00    +0.000 C 
ATOM     26  C   UNL     1     -65.107 -48.942 -30.037  0.00  0.00    +0.000 C 
ATOM     27  C   UNL     1     -66.661 -45.134 -34.509  0.00  0.00    +0.000 C 
ATOM     28  C   UNL     1     -64.560 -46.741 -36.129  0.00  0.00    +0.000 C 
ATOM     29  C   UNL     1     -65.457 -47.490 -37.114  0.00  0.00    +0.000 C 
BRANCH  19  32
ATOM     30  O   UNL     1     -67.061 -46.266 -26.024  0.00  0.00    +0.000 OA
ATOM     31  O   UNL     1     -65.381 -47.125 -24.716  0.00  0.00    +0.000 OA
ATOM     32  C   UNL     1     -67.016 -47.946 -27.604  0.00  0.00    +0.000 C 
ATOM     33  C   UNL     1     -67.695 -46.679 -27.234  0.00  0.00    +0.000 C 
ATOM     34  C   UNL     1     -66.071 -48.226 -26.706  0.00  0.00    +0.000 C 
ATOM     35  C   UNL     1     -66.104 -47.172 -25.694  0.00  0.00    +0.000 C 
ENDBRANCH  19  32
BRANCH  11  36
ATOM     36  O   UNL     1     -67.254 -50.454 -31.136  0.00  0.00    +0.000 OA
ATOM     37  H   UNL     1     -67.854 -50.869 -31.779  0.00  0.00    +0.000 HD
ENDBRANCH  11  36
ENDBRANCH  10  29
ENDBRANCH   2  10
BRANCH   6  38
ATOM     38  O   UNL     1     -60.541 -44.510 -39.010  0.00  0.00    +0.000 OA
BRANCH  38  40
ATOM     39  O   UNL     1     -60.102 -45.159 -36.770  0.00  0.00    +0.000 OA
ATOM     40  C   UNL     1     -59.967 -45.481 -38.148  0.00  0.00    +0.000 C 
ATOM     41  C   UNL     1     -58.542 -45.909 -38.486  0.00  0.00    +0.000 C 
ATOM     42  C   UNL     1     -57.740 -46.296 -37.247  0.00  0.00    +0.000 C 
ATOM     43  C   UNL     1     -59.945 -46.330 -35.946  0.00  0.00    +0.000 C 
ATOM     44  C   UNL     1     -58.554 -46.988 -36.135  0.00  0.00    +0.000 C 
ATOM     45  C   UNL     1     -60.148 -45.879 -34.501  0.00  0.00    +0.000 C 
BRANCH  42  46
ATOM     46  O   UNL     1     -56.580 -47.046 -37.607  0.00  0.00    +0.000 OA
ATOM     47  H   UNL     1     -55.887 -46.872 -36.946  0.00  0.00    +0.000 HD
ENDBRANCH  42  46
BRANCH  44  48
ATOM     48  O   UNL     1     -58.643 -48.418 -36.161  0.00  0.00    +0.000 OA
BRANCH  48  50
ATOM     49  O   UNL     1     -56.683 -48.463 -34.869  0.00  0.00    +0.000 OA
ATOM     50  C   UNL     1     -57.859 -49.171 -35.244  0.00  0.00    +0.000 C 
ATOM     51  C   UNL     1     -57.458 -50.462 -35.965  0.00  0.00    +0.000 C 
ATOM     52  C   UNL     1     -56.130 -51.020 -35.459  0.00  0.00    +0.000 C 
ATOM     53  C   UNL     1     -55.947 -49.117 -33.818  0.00  0.00    +0.000 C 
ATOM     54  C   UNL     1     -55.897 -50.646 -33.993  0.00  0.00    +0.000 C 
ATOM     55  C   UNL     1     -54.548 -48.511 -33.841  0.00  0.00    +0.000 C 
BRANCH  52  56
ATOM     56  O   UNL     1     -56.152 -52.447 -35.582  0.00  0.00    +0.000 OA
ATOM     57  H   UNL     1     -55.262 -52.731 -35.859  0.00  0.00    +0.000 HD
ENDBRANCH  52  56
BRANCH  54  58
ATOM     58  O   UNL     1     -56.942 -51.245 -33.206  0.00  0.00    +0.000 OA
ATOM     59  H   UNL     1     -56.556 -51.389 -32.317  0.00  0.00    +0.000 HD
ENDBRANCH  54  58
ENDBRANCH  48  50
ENDBRANCH  44  48
ENDBRANCH  38  40
ENDBRANCH   6  38
TORSDOF 12
ENDMDL
MODEL 3
REMARK VINA RESULT:      -7.0      8.232     19.696
REMARK  Name = 
REMARK  17 active torsions:
REMARK  status: ('A' for Active; 'I' for Inactive)
REMARK    1  A    between atoms: O_1  and  C_14
REMARK    2  A    between atoms: O_2  and  C_32
REMARK    3  A    between atoms: O_2  and  C_36
REMARK    4  A    between atoms: O_6  and  C_39
REMARK    5  A    between atoms: O_7  and  C_41
REMARK    6  A    between atoms: O_7  and  C_43
REMARK    7  A    between atoms: O_9  and  C_47
REMARK    8  A    between atoms: O_9  and  C_49
REMARK    9  A    between atoms: O_10  and  C_45
REMARK   10  A    between atoms: O_12  and  C_51
REMARK   11  A    between atoms: O_13  and  C_53
REMARK   12  A    between atoms: C_17  and  C_29
REMARK   13  A    between atoms: C_18  and  C_30
REMARK   14  A    between atoms: C_22  and  C_33
REMARK   15  A    between atoms: C_40  and  C_42
REMARK   16  A    between atoms: C_46  and  C_48
REMARK   17  A    between atoms: C_52  and  C_54
REMARK                            x       y       z     vdW  Elec       q    Type
REMARK                         _______ _______ _______ _____ _____    ______ ____
ROOT
ATOM      1  O   UNL     1     -44.148 -59.427 -88.786  0.00  0.00    +0.000 OA
ATOM      2  C   UNL     1     -43.870 -60.809 -88.573  0.00  0.00    +0.000 C 
ATOM      3  C   UNL     1     -44.962 -61.717 -89.144  0.00  0.00    +0.000 C 
ATOM      4  C   UNL     1     -45.945 -60.935 -90.002  0.00  0.00    +0.000 C 
ATOM      5  C   UNL     1     -44.201 -59.085 -90.176  0.00  0.00    +0.000 C 
ATOM      6  C   UNL     1     -45.276 -59.903 -90.933  0.00  0.00    +0.000 C 
ATOM      7  C   UNL     1     -44.494 -57.587 -90.250  0.00  0.00    +0.000 C 
ENDROOT
BRANCH   4   8
ATOM      8  O   UNL     1     -46.854 -61.797 -90.677  0.00  0.00    +0.000 OA
ATOM      9  H   UNL     1     -46.314 -62.521 -91.060  0.00  0.00    +0.000 HD
ENDBRANCH   4   8
BRANCH   2  10
ATOM     10  O   UNL     1     -43.623 -61.101 -87.198  0.00  0.00    +0.000 OA
BRANCH  10  29
ATOM     11  C   UNL     1     -49.098 -58.840 -82.153  0.00  0.00    +0.000 C 
ATOM     12  C   UNL     1     -47.975 -59.236 -83.150  0.00  0.00    +0.000 C 
ATOM     13  C   UNL     1     -46.634 -59.594 -82.460  0.00  0.00    +0.000 C 
ATOM     14  C   UNL     1     -49.281 -59.833 -80.970  0.00  0.00    +0.000 C 
ATOM     15  C   UNL     1     -45.493 -60.002 -83.480  0.00  0.00    +0.000 C 
ATOM     16  C   UNL     1     -45.384 -58.934 -84.618  0.00  0.00    +0.000 C 
ATOM     17  C   UNL     1     -46.877 -60.639 -81.352  0.00  0.00    +0.000 C 
ATOM     18  C   UNL     1     -47.911 -60.165 -80.331  0.00  0.00    +0.000 C 
ATOM     19  C   UNL     1     -50.191 -58.999 -80.011  0.00  0.00    +0.000 C 
ATOM     20  C   UNL     1     -47.761 -58.148 -84.213  0.00  0.00    +0.000 C 
ATOM     21  C   UNL     1     -48.897 -57.480 -81.462  0.00  0.00    +0.000 C 
ATOM     22  C   UNL     1     -46.744 -58.592 -85.252  0.00  0.00    +0.000 C 
ATOM     23  C   UNL     1     -49.631 -57.566 -80.118  0.00  0.00    +0.000 C 
ATOM     24  C   UNL     1     -45.740 -61.405 -84.101  0.00  0.00    +0.000 C 
ATOM     25  C   UNL     1     -44.393 -59.343 -85.727  0.00  0.00    +0.000 C 
ATOM     26  C   UNL     1     -49.980 -61.138 -81.402  0.00  0.00    +0.000 C 
ATOM     27  C   UNL     1     -44.148 -60.035 -82.702  0.00  0.00    +0.000 C 
ATOM     28  C   UNL     1     -44.742 -61.777 -85.198  0.00  0.00    +0.000 C 
ATOM     29  C   UNL     1     -44.682 -60.730 -86.309  0.00  0.00    +0.000 C 
BRANCH  19  32
ATOM     30  O   UNL     1     -49.991 -59.729 -76.345  0.00  0.00    +0.000 OA
ATOM     31  O   UNL     1     -51.432 -61.487 -76.023  0.00  0.00    +0.000 OA
ATOM     32  C   UNL     1     -50.370 -59.521 -78.610  0.00  0.00    +0.000 C 
ATOM     33  C   UNL     1     -49.599 -58.952 -77.476  0.00  0.00    +0.000 C 
ATOM     34  C   UNL     1     -51.117 -60.537 -78.178  0.00  0.00    +0.000 C 
ATOM     35  C   UNL     1     -50.891 -60.665 -76.740  0.00  0.00    +0.000 C 
ENDBRANCH  19  32
BRANCH  11  36
ATOM     36  O   UNL     1     -50.336 -58.730 -82.877  0.00  0.00    +0.000 OA
ATOM     37  H   UNL     1     -51.071 -58.881 -82.258  0.00  0.00    +0.000 HD
ENDBRANCH  11  36
ENDBRANCH  10  29
ENDBRANCH   2  10
BRANCH   6  38
ATOM     38  O   UNL     1     -44.845 -60.282 -92.243  0.00  0.00    +0.000 OA
BRANCH  38  40
ATOM     39  O   UNL     1     -42.829 -60.563 -93.463  0.00  0.00    +0.000 OA
ATOM     40  C   UNL     1     -43.742 -61.129 -92.533  0.00  0.00    +0.000 C 
ATOM     41  C   UNL     1     -44.090 -62.570 -92.895  0.00  0.00    +0.000 C 
ATOM     42  C   UNL     1     -43.089 -63.184 -93.870  0.00  0.00    +0.000 C 
ATOM     43  C   UNL     1     -41.541 -61.204 -93.381  0.00  0.00    +0.000 C 
ATOM     44  C   UNL     1     -41.630 -62.722 -93.681  0.00  0.00    +0.000 C 
ATOM     45  C   UNL     1     -40.634 -60.497 -94.385  0.00  0.00    +0.000 C 
BRANCH  42  46
ATOM     46  O   UNL     1     -43.203 -64.606 -93.886  0.00  0.00    +0.000 OA
ATOM     47  H   UNL     1     -42.362 -64.983 -93.573  0.00  0.00    +0.000 HD
ENDBRANCH  42  46
BRANCH  44  48
ATOM     48  O   UNL     1     -40.794 -63.487 -92.804  0.00  0.00    +0.000 OA
BRANCH  48  50
ATOM     49  O   UNL     1     -39.170 -63.319 -91.116  0.00  0.00    +0.000 OA
ATOM     50  C   UNL     1     -40.488 -62.964 -91.517  0.00  0.00    +0.000 C 
ATOM     51  C   UNL     1     -41.493 -63.586 -90.541  0.00  0.00    +0.000 C 
ATOM     52  C   UNL     1     -40.927 -63.711 -89.128  0.00  0.00    +0.000 C 
ATOM     53  C   UNL     1     -38.763 -62.673 -89.895  0.00  0.00    +0.000 C 
ATOM     54  C   UNL     1     -39.892 -62.618 -88.850  0.00  0.00    +0.000 C 
ATOM     55  C   UNL     1     -37.567 -63.464 -89.377  0.00  0.00    +0.000 C 
BRANCH  52  56
ATOM     56  O   UNL     1     -42.001 -63.591 -88.188  0.00  0.00    +0.000 OA
ATOM     57  H   UNL     1     -42.794 -63.980 -88.599  0.00  0.00    +0.000 HD
ENDBRANCH  52  56
BRANCH  54  58
ATOM     58  O   UNL     1     -40.553 -61.342 -88.936  0.00  0.00    +0.000 OA
ATOM     59  H   UNL     1     -40.682 -61.047 -88.011  0.00  0.00    +0.000 HD
ENDBRANCH  54  58
ENDBRANCH  48  50
ENDBRANCH  44  48
ENDBRANCH  38  40
ENDBRANCH   6  38
TORSDOF 12
ENDMDL
MODEL 4
REMARK VINA RESULT:      -7.0     38.240     50.632
REMARK  Name = 
REMARK  17 active torsions:
REMARK  status: ('A' for Active; 'I' for Inactive)
REMARK    1  A    between atoms: O_1  and  C_14
REMARK    2  A    between atoms: O_2  and  C_32
REMARK    3  A    between atoms: O_2  and  C_36
REMARK    4  A    between atoms: O_6  and  C_39
REMARK    5  A    between atoms: O_7  and  C_41
REMARK    6  A    between atoms: O_7  and  C_43
REMARK    7  A    between atoms: O_9  and  C_47
REMARK    8  A    between atoms: O_9  and  C_49
REMARK    9  A    between atoms: O_10  and  C_45
REMARK   10  A    between atoms: O_12  and  C_51
REMARK   11  A    between atoms: O_13  and  C_53
REMARK   12  A    between atoms: C_17  and  C_29
REMARK   13  A    between atoms: C_18  and  C_30
REMARK   14  A    between atoms: C_22  and  C_33
REMARK   15  A    between atoms: C_40  and  C_42
REMARK   16  A    between atoms: C_46  and  C_48
REMARK   17  A    between atoms: C_52  and  C_54
REMARK                            x       y       z     vdW  Elec       q    Type
REMARK                         _______ _______ _______ _____ _____    ______ ____
ROOT
ATOM      1  O   UNL     1     -71.214 -55.604 -28.833  0.00  0.00    +0.000 OA
ATOM      2  C   UNL     1     -71.436 -56.910 -28.308  0.00  0.00    +0.000 C 
ATOM      3  C   UNL     1     -71.968 -57.880 -29.367  0.00  0.00    +0.000 C 
ATOM      4  C   UNL     1     -71.899 -57.276 -30.761  0.00  0.00    +0.000 C 
ATOM      5  C   UNL     1     -70.216 -55.588 -29.861  0.00  0.00    +0.000 C 
ATOM      6  C   UNL     1     -70.589 -56.512 -31.044  0.00  0.00    +0.000 C 
ATOM      7  C   UNL     1     -70.078 -54.136 -30.317  0.00  0.00    +0.000 C 
ENDROOT
BRANCH   4   8
ATOM      8  O   UNL     1     -72.223 -58.232 -31.763  0.00  0.00    +0.000 OA
ATOM      9  H   UNL     1     -73.191 -58.164 -31.906  0.00  0.00    +0.000 HD
ENDBRANCH   4   8
BRANCH   2  10
ATOM     10  O   UNL     1     -72.280 -56.891 -27.157  0.00  0.00    +0.000 OA
BRANCH  10  29
ATOM     11  C   UNL     1     -74.240 -63.729 -24.005  0.00  0.00    +0.000 C 
ATOM     12  C   UNL     1     -73.890 -62.336 -24.595  0.00  0.00    +0.000 C 
ATOM     13  C   UNL     1     -73.047 -61.454 -23.639  0.00  0.00    +0.000 C 
ATOM     14  C   UNL     1     -73.025 -64.492 -23.405  0.00  0.00    +0.000 C 
ATOM     15  C   UNL     1     -72.688 -60.036 -24.247  0.00  0.00    +0.000 C 
ATOM     16  C   UNL     1     -73.978 -59.351 -24.808  0.00  0.00    +0.000 C 
ATOM     17  C   UNL     1     -71.818 -62.244 -23.144  0.00  0.00    +0.000 C 
ATOM     18  C   UNL     1     -72.212 -63.560 -22.473  0.00  0.00    +0.000 C 
ATOM     19  C   UNL     1     -73.742 -65.633 -22.614  0.00  0.00    +0.000 C 
ATOM     20  C   UNL     1     -75.152 -61.586 -25.046  0.00  0.00    +0.000 C 
ATOM     21  C   UNL     1     -75.261 -63.704 -22.854  0.00  0.00    +0.000 C 
ATOM     22  C   UNL     1     -74.795 -60.275 -25.728  0.00  0.00    +0.000 C 
ATOM     23  C   UNL     1     -74.973 -64.941 -21.994  0.00  0.00    +0.000 C 
ATOM     24  C   UNL     1     -71.617 -60.136 -25.369  0.00  0.00    +0.000 C 
ATOM     25  C   UNL     1     -73.679 -58.031 -25.547  0.00  0.00    +0.000 C 
ATOM     26  C   UNL     1     -72.098 -65.069 -24.494  0.00  0.00    +0.000 C 
ATOM     27  C   UNL     1     -72.120 -59.156 -23.098  0.00  0.00    +0.000 C 
ATOM     28  C   UNL     1     -71.348 -58.810 -26.082  0.00  0.00    +0.000 C 
ATOM     29  C   UNL     1     -72.622 -58.183 -26.645  0.00  0.00    +0.000 C 
BRANCH  19  32
ATOM     30  O   UNL     1     -72.069 -67.153 -19.631  0.00  0.00    +0.000 OA
ATOM     31  O   UNL     1     -70.482 -68.561 -20.508  0.00  0.00    +0.000 OA
ATOM     32  C   UNL     1     -72.902 -66.438 -21.659  0.00  0.00    +0.000 C 
ATOM     33  C   UNL     1     -73.058 -66.289 -20.190  0.00  0.00    +0.000 C 
ATOM     34  C   UNL     1     -71.910 -67.290 -21.920  0.00  0.00    +0.000 C 
ATOM     35  C   UNL     1     -71.387 -67.758 -20.638  0.00  0.00    +0.000 C 
ENDBRANCH  19  32
BRANCH  11  36
ATOM     36  O   UNL     1     -74.839 -64.528 -25.040  0.00  0.00    +0.000 OA
ATOM     37  H   UNL     1     -75.605 -64.048 -25.397  0.00  0.00    +0.000 HD
ENDBRANCH  11  36
ENDBRANCH  10  29
ENDBRANCH   2  10
BRANCH   6  38
ATOM     38  O   UNL     1     -69.452 -57.199 -31.576  0.00  0.00    +0.000 OA
BRANCH  38  40
ATOM     39  O   UNL     1     -70.100 -57.467 -33.843  0.00  0.00    +0.000 OA
ATOM     40  C   UNL     1     -69.043 -57.183 -32.936  0.00  0.00    +0.000 C 
ATOM     41  C   UNL     1     -67.792 -57.992 -33.261  0.00  0.00    +0.000 C 
ATOM     42  C   UNL     1     -67.818 -58.561 -34.677  0.00  0.00    +0.000 C 
ATOM     43  C   UNL     1     -69.785 -56.998 -35.169  0.00  0.00    +0.000 C 
ATOM     44  C   UNL     1     -68.501 -57.662 -35.727  0.00  0.00    +0.000 C 
ATOM     45  C   UNL     1     -70.995 -57.316 -36.045  0.00  0.00    +0.000 C 
BRANCH  42  46
ATOM     46  O   UNL     1     -66.512 -58.964 -35.086  0.00  0.00    +0.000 OA
ATOM     47  H   UNL     1     -65.863 -58.379 -34.658  0.00  0.00    +0.000 HD
ENDBRANCH  42  46
BRANCH  44  48
ATOM     48  O   UNL     1     -67.685 -56.723 -36.438  0.00  0.00    +0.000 OA
BRANCH  48  50
ATOM     49  O   UNL     1     -68.702 -55.927 -38.399  0.00  0.00    +0.000 OA
ATOM     50  C   UNL     1     -67.679 -56.757 -37.860  0.00  0.00    +0.000 C 
ATOM     51  C   UNL     1     -67.948 -58.210 -38.266  0.00  0.00    +0.000 C 
ATOM     52  C   UNL     1     -68.646 -58.313 -39.621  0.00  0.00    +0.000 C 
ATOM     53  C   UNL     1     -68.626 -55.803 -39.832  0.00  0.00    +0.000 C 
ATOM     54  C   UNL     1     -68.276 -57.134 -40.523  0.00  0.00    +0.000 C 
ATOM     55  C   UNL     1     -69.986 -55.284 -40.284  0.00  0.00    +0.000 C 
BRANCH  52  56
ATOM     56  O   UNL     1     -68.243 -59.533 -40.255  0.00  0.00    +0.000 OA
ATOM     57  H   UNL     1     -68.597 -59.522 -41.162  0.00  0.00    +0.000 HD
ENDBRANCH  52  56
BRANCH  54  58
ATOM     58  O   UNL     1     -66.859 -57.181 -40.766  0.00  0.00    +0.000 OA
ATOM     59  H   UNL     1     -66.658 -56.399 -41.321  0.00  0.00    +0.000 HD
ENDBRANCH  54  58
ENDBRANCH  48  50
ENDBRANCH  44  48
ENDBRANCH  38  40
ENDBRANCH   6  38
TORSDOF 12
ENDMDL
MODEL 5
REMARK VINA RESULT:      -6.8     43.133     51.691
REMARK  Name = 
REMARK  17 active torsions:
REMARK  status: ('A' for Active; 'I' for Inactive)
REMARK    1  A    between atoms: O_1  and  C_14
REMARK    2  A    between atoms: O_2  and  C_32
REMARK    3  A    between atoms: O_2  and  C_36
REMARK    4  A    between atoms: O_6  and  C_39
REMARK    5  A    between atoms: O_7  and  C_41
REMARK    6  A    between atoms: O_7  and  C_43
REMARK    7  A    between atoms: O_9  and  C_47
REMARK    8  A    between atoms: O_9  and  C_49
REMARK    9  A    between atoms: O_10  and  C_45
REMARK   10  A    between atoms: O_12  and  C_51
REMARK   11  A    between atoms: O_13  and  C_53
REMARK   12  A    between atoms: C_17  and  C_29
REMARK   13  A    between atoms: C_18  and  C_30
REMARK   14  A    between atoms: C_22  and  C_33
REMARK   15  A    between atoms: C_40  and  C_42
REMARK   16  A    between atoms: C_46  and  C_48
REMARK   17  A    between atoms: C_52  and  C_54
REMARK                            x       y       z     vdW  Elec       q    Type
REMARK                         _______ _______ _______ _____ _____    ______ ____
ROOT
ATOM      1  O   UNL     1     -73.215 -60.978 -30.511  0.00  0.00    +0.000 OA
ATOM      2  C   UNL     1     -71.944 -61.373 -30.003  0.00  0.00    +0.000 C 
ATOM      3  C   UNL     1     -71.321 -62.512 -30.814  0.00  0.00    +0.000 C 
ATOM      4  C   UNL     1     -72.098 -62.772 -32.096  0.00  0.00    +0.000 C 
ATOM      5  C   UNL     1     -73.136 -60.459 -31.844  0.00  0.00    +0.000 C 
ATOM      6  C   UNL     1     -72.536 -61.489 -32.831  0.00  0.00    +0.000 C 
ATOM      7  C   UNL     1     -74.557 -60.070 -32.249  0.00  0.00    +0.000 C 
ENDROOT
BRANCH   4   8
ATOM      8  O   UNL     1     -71.426 -63.703 -32.937  0.00  0.00    +0.000 OA
ATOM      9  H   UNL     1     -71.288 -64.511 -32.398  0.00  0.00    +0.000 HD
ENDBRANCH   4   8
BRANCH   2  10
ATOM     10  O   UNL     1     -71.999 -61.700 -28.614  0.00  0.00    +0.000 OA
BRANCH  10  29
ATOM     11  C   UNL     1     -75.202 -56.141 -24.212  0.00  0.00    +0.000 C 
ATOM     12  C   UNL     1     -74.530 -57.206 -25.122  0.00  0.00    +0.000 C 
ATOM     13  C   UNL     1     -73.034 -57.445 -24.793  0.00  0.00    +0.000 C 
ATOM     14  C   UNL     1     -74.951 -56.350 -22.691  0.00  0.00    +0.000 C 
ATOM     15  C   UNL     1     -72.355 -58.535 -25.719  0.00  0.00    +0.000 C 
ATOM     16  C   UNL     1     -72.657 -58.224 -27.223  0.00  0.00    +0.000 C 
ATOM     17  C   UNL     1     -72.867 -57.723 -23.285  0.00  0.00    +0.000 C 
ATOM     18  C   UNL     1     -73.447 -56.599 -22.425  0.00  0.00    +0.000 C 
ATOM     19  C   UNL     1     -75.432 -54.981 -22.112  0.00  0.00    +0.000 C 
ATOM     20  C   UNL     1     -74.706 -56.863 -26.609  0.00  0.00    +0.000 C 
ATOM     21  C   UNL     1     -74.742 -54.694 -24.463  0.00  0.00    +0.000 C 
ATOM     22  C   UNL     1     -74.150 -57.967 -27.494  0.00  0.00    +0.000 C 
ATOM     23  C   UNL     1     -74.931 -53.945 -23.139  0.00  0.00    +0.000 C 
ATOM     24  C   UNL     1     -72.832 -59.973 -25.376  0.00  0.00    +0.000 C 
ATOM     25  C   UNL     1     -72.149 -59.327 -28.174  0.00  0.00    +0.000 C 
ATOM     26  C   UNL     1     -75.778 -57.518 -22.115  0.00  0.00    +0.000 C 
ATOM     27  C   UNL     1     -70.818 -58.457 -25.497  0.00  0.00    +0.000 C 
ATOM     28  C   UNL     1     -72.313 -61.040 -26.340  0.00  0.00    +0.000 C 
ATOM     29  C   UNL     1     -72.651 -60.724 -27.795  0.00  0.00    +0.000 C 
BRANCH  19  32
ATOM     30  O   UNL     1     -75.279 -54.763 -18.379  0.00  0.00    +0.000 OA
ATOM     31  O   UNL     1     -73.616 -53.238 -17.953  0.00  0.00    +0.000 OA
ATOM     32  C   UNL     1     -75.091 -54.687 -20.676  0.00  0.00    +0.000 C 
ATOM     33  C   UNL     1     -75.841 -55.323 -19.565  0.00  0.00    +0.000 C 
ATOM     34  C   UNL     1     -74.197 -53.831 -20.180  0.00  0.00    +0.000 C 
ATOM     35  C   UNL     1     -74.302 -53.884 -18.723  0.00  0.00    +0.000 C 
ENDBRANCH  19  32
BRANCH  11  36
ATOM     36  O   UNL     1     -76.617 -56.149 -24.465  0.00  0.00    +0.000 OA
ATOM     37  H   UNL     1     -76.993 -55.308 -24.153  0.00  0.00    +0.000 HD
ENDBRANCH  11  36
ENDBRANCH  10  29
ENDBRANCH   2  10
BRANCH   6  38
ATOM     38  O   UNL     1     -71.672 -60.877 -33.794  0.00  0.00    +0.000 OA
BRANCH  38  40
ATOM     39  O   UNL     1     -70.728 -58.937 -34.781  0.00  0.00    +0.000 OA
ATOM     40  C   UNL     1     -70.926 -59.686 -33.590  0.00  0.00    +0.000 C 
ATOM     41  C   UNL     1     -69.629 -59.843 -32.803  0.00  0.00    +0.000 C 
ATOM     42  C   UNL     1     -68.563 -58.838 -33.230  0.00  0.00    +0.000 C 
ATOM     43  C   UNL     1     -70.399 -57.566 -34.483  0.00  0.00    +0.000 C 
ATOM     44  C   UNL     1     -69.103 -57.453 -33.640  0.00  0.00    +0.000 C 
ATOM     45  C   UNL     1     -70.248 -56.850 -35.823  0.00  0.00    +0.000 C 
BRANCH  42  46
ATOM     46  O   UNL     1     -67.534 -58.741 -32.247  0.00  0.00    +0.000 OA
ATOM     47  H   UNL     1     -67.872 -59.111 -31.413  0.00  0.00    +0.000 HD
ENDBRANCH  42  46
BRANCH  44  48
ATOM     48  O   UNL     1     -69.218 -56.450 -32.623  0.00  0.00    +0.000 OA
BRANCH  48  50
ATOM     49  O   UNL     1     -71.084 -55.029 -32.517  0.00  0.00    +0.000 OA
ATOM     50  C   UNL     1     -70.487 -56.222 -32.023  0.00  0.00    +0.000 C 
ATOM     51  C   UNL     1     -70.242 -56.073 -30.518  0.00  0.00    +0.000 C 
ATOM     52  C   UNL     1     -71.281 -55.178 -29.847  0.00  0.00    +0.000 C 
ATOM     53  C   UNL     1     -72.438 -54.849 -32.061  0.00  0.00    +0.000 C 
ATOM     54  C   UNL     1     -72.622 -55.242 -30.583  0.00  0.00    +0.000 C 
ATOM     55  C   UNL     1     -72.769 -53.378 -32.288  0.00  0.00    +0.000 C 
BRANCH  52  56
ATOM     56  O   UNL     1     -71.466 -55.618 -28.496  0.00  0.00    +0.000 OA
ATOM     57  H   UNL     1     -70.943 -56.431 -28.379  0.00  0.00    +0.000 HD
ENDBRANCH  52  56
BRANCH  54  58
ATOM     58  O   UNL     1     -73.109 -56.594 -30.512  0.00  0.00    +0.000 OA
ATOM     59  H   UNL     1     -73.733 -56.691 -31.261  0.00  0.00    +0.000 HD
ENDBRANCH  54  58
ENDBRANCH  48  50
ENDBRANCH  44  48
ENDBRANCH  38  40
ENDBRANCH   6  38
TORSDOF 12
ENDMDL
MODEL 6
REMARK VINA RESULT:      -6.7     36.370     46.577
REMARK  Name = 
REMARK  17 active torsions:
REMARK  status: ('A' for Active; 'I' for Inactive)
REMARK    1  A    between atoms: O_1  and  C_14
REMARK    2  A    between atoms: O_2  and  C_32
REMARK    3  A    between atoms: O_2  and  C_36
REMARK    4  A    between atoms: O_6  and  C_39
REMARK    5  A    between atoms: O_7  and  C_41
REMARK    6  A    between atoms: O_7  and  C_43
REMARK    7  A    between atoms: O_9  and  C_47
REMARK    8  A    between atoms: O_9  and  C_49
REMARK    9  A    between atoms: O_10  and  C_45
REMARK   10  A    between atoms: O_12  and  C_51
REMARK   11  A    between atoms: O_13  and  C_53
REMARK   12  A    between atoms: C_17  and  C_29
REMARK   13  A    between atoms: C_18  and  C_30
REMARK   14  A    between atoms: C_22  and  C_33
REMARK   15  A    between atoms: C_40  and  C_42
REMARK   16  A    between atoms: C_46  and  C_48
REMARK   17  A    between atoms: C_52  and  C_54
REMARK                            x       y       z     vdW  Elec       q    Type
REMARK                         _______ _______ _______ _____ _____    ______ ____
ROOT
ATOM      1  O   UNL     1     -68.709 -58.578 -34.549  0.00  0.00    +0.000 OA
ATOM      2  C   UNL     1     -69.557 -57.499 -34.935  0.00  0.00    +0.000 C 
ATOM      3  C   UNL     1     -69.074 -56.809 -36.214  0.00  0.00    +0.000 C 
ATOM      4  C   UNL     1     -67.956 -57.595 -36.883  0.00  0.00    +0.000 C 
ATOM      5  C   UNL     1     -68.677 -59.627 -35.525  0.00  0.00    +0.000 C 
ATOM      6  C   UNL     1     -68.191 -59.119 -36.904  0.00  0.00    +0.000 C 
ATOM      7  C   UNL     1     -67.747 -60.709 -34.977  0.00  0.00    +0.000 C 
ENDROOT
BRANCH   4   8
ATOM      8  O   UNL     1     -67.628 -57.057 -38.158  0.00  0.00    +0.000 OA
ATOM      9  H   UNL     1     -67.379 -57.819 -38.723  0.00  0.00    +0.000 HD
ENDBRANCH   4   8
BRANCH   2  10
ATOM     10  O   UNL     1     -69.740 -56.556 -33.879  0.00  0.00    +0.000 OA
BRANCH  10  29
ATOM     11  C   UNL     1     -72.395 -59.559 -27.210  0.00  0.00    +0.000 C 
ATOM     12  C   UNL     1     -71.921 -58.974 -28.568  0.00  0.00    +0.000 C 
ATOM     13  C   UNL     1     -72.580 -57.615 -28.920  0.00  0.00    +0.000 C 
ATOM     14  C   UNL     1     -72.348 -58.550 -26.028  0.00  0.00    +0.000 C 
ATOM     15  C   UNL     1     -72.090 -57.019 -30.303  0.00  0.00    +0.000 C 
ATOM     16  C   UNL     1     -72.190 -58.108 -31.422  0.00  0.00    +0.000 C 
ATOM     17  C   UNL     1     -72.428 -56.638 -27.736  0.00  0.00    +0.000 C 
ATOM     18  C   UNL     1     -73.004 -57.209 -26.440  0.00  0.00    +0.000 C 
ATOM     19  C   UNL     1     -73.185 -59.307 -24.948  0.00  0.00    +0.000 C 
ATOM     20  C   UNL     1     -72.119 -59.980 -29.712  0.00  0.00    +0.000 C 
ATOM     21  C   UNL     1     -73.847 -60.069 -27.199  0.00  0.00    +0.000 C 
ATOM     22  C   UNL     1     -71.547 -59.446 -31.015  0.00  0.00    +0.000 C 
ATOM     23  C   UNL     1     -74.334 -59.950 -25.750  0.00  0.00    +0.000 C 
ATOM     24  C   UNL     1     -70.633 -56.482 -30.224  0.00  0.00    +0.000 C 
ATOM     25  C   UNL     1     -71.591 -57.642 -32.764  0.00  0.00    +0.000 C 
ATOM     26  C   UNL     1     -70.910 -58.290 -25.535  0.00  0.00    +0.000 C 
ATOM     27  C   UNL     1     -73.033 -55.840 -30.674  0.00  0.00    +0.000 C 
ATOM     28  C   UNL     1     -70.071 -56.031 -31.572  0.00  0.00    +0.000 C 
ATOM     29  C   UNL     1     -70.154 -57.127 -32.633  0.00  0.00    +0.000 C 
BRANCH  19  32
ATOM     30  O   UNL     1     -75.035 -57.558 -22.205  0.00  0.00    +0.000 OA
ATOM     31  O   UNL     1     -73.405 -56.481 -20.998  0.00  0.00    +0.000 OA
ATOM     32  C   UNL     1     -73.603 -58.524 -23.732  0.00  0.00    +0.000 C 
ATOM     33  C   UNL     1     -75.033 -58.406 -23.351  0.00  0.00    +0.000 C 
ATOM     34  C   UNL     1     -72.857 -57.799 -22.898  0.00  0.00    +0.000 C 
ATOM     35  C   UNL     1     -73.758 -57.195 -21.919  0.00  0.00    +0.000 C 
ENDBRANCH  19  32
BRANCH  11  36
ATOM     36  O   UNL     1     -71.579 -60.700 -26.893  0.00  0.00    +0.000 OA
ATOM     37  H   UNL     1     -72.118 -61.337 -26.394  0.00  0.00    +0.000 HD
ENDBRANCH  11  36
ENDBRANCH  10  29
ENDBRANCH   2  10
BRANCH   6  38
ATOM     38  O   UNL     1     -68.903 -59.726 -37.986  0.00  0.00    +0.000 OA
BRANCH  38  40
ATOM     39  O   UNL     1     -70.195 -59.467 -39.960  0.00  0.00    +0.000 OA
ATOM     40  C   UNL     1     -68.949 -59.235 -39.318  0.00  0.00    +0.000 C 
ATOM     41  C   UNL     1     -67.776 -59.630 -40.211  0.00  0.00    +0.000 C 
ATOM     42  C   UNL     1     -68.179 -59.763 -41.677  0.00  0.00    +0.000 C 
ATOM     43  C   UNL     1     -70.373 -58.583 -41.084  0.00  0.00    +0.000 C 
ATOM     44  C   UNL     1     -69.260 -58.769 -42.146  0.00  0.00    +0.000 C 
ATOM     45  C   UNL     1     -71.750 -58.889 -41.669  0.00  0.00    +0.000 C 
BRANCH  42  46
ATOM     46  O   UNL     1     -67.030 -59.743 -42.522  0.00  0.00    +0.000 OA
ATOM     47  H   UNL     1     -66.974 -60.600 -42.981  0.00  0.00    +0.000 HD
ENDBRANCH  42  46
BRANCH  44  48
ATOM     48  O   UNL     1     -68.828 -57.514 -42.687  0.00  0.00    +0.000 OA
BRANCH  48  50
ATOM     49  O   UNL     1     -69.410 -55.247 -42.500  0.00  0.00    +0.000 OA
ATOM     50  C   UNL     1     -68.826 -56.368 -41.845  0.00  0.00    +0.000 C 
ATOM     51  C   UNL     1     -67.359 -56.056 -41.530  0.00  0.00    +0.000 C 
ATOM     52  C   UNL     1     -67.127 -54.570 -41.267  0.00  0.00    +0.000 C 
ATOM     53  C   UNL     1     -69.578 -54.114 -41.628  0.00  0.00    +0.000 C 
ATOM     54  C   UNL     1     -68.379 -53.910 -40.683  0.00  0.00    +0.000 C 
ATOM     55  C   UNL     1     -69.779 -52.907 -42.536  0.00  0.00    +0.000 C 
BRANCH  52  56
ATOM     56  O   UNL     1     -66.046 -54.430 -40.337  0.00  0.00    +0.000 OA
ATOM     57  H   UNL     1     -66.286 -53.720 -39.714  0.00  0.00    +0.000 HD
ENDBRANCH  52  56
BRANCH  54  58
ATOM     58  O   UNL     1     -68.665 -54.531 -39.417  0.00  0.00    +0.000 OA
ATOM     59  H   UNL     1     -67.912 -54.302 -38.833  0.00  0.00    +0.000 HD
ENDBRANCH  54  58
ENDBRANCH  48  50
ENDBRANCH  44  48
ENDBRANCH  38  40
ENDBRANCH   6  38
TORSDOF 12
ENDMDL
MODEL 7
REMARK VINA RESULT:      -6.6     44.160     53.608
REMARK  Name = 
REMARK  17 active torsions:
REMARK  status: ('A' for Active; 'I' for Inactive)
REMARK    1  A    between atoms: O_1  and  C_14
REMARK    2  A    between atoms: O_2  and  C_32
REMARK    3  A    between atoms: O_2  and  C_36
REMARK    4  A    between atoms: O_6  and  C_39
REMARK    5  A    between atoms: O_7  and  C_41
REMARK    6  A    between atoms: O_7  and  C_43
REMARK    7  A    between atoms: O_9  and  C_47
REMARK    8  A    between atoms: O_9  and  C_49
REMARK    9  A    between atoms: O_10  and  C_45
REMARK   10  A    between atoms: O_12  and  C_51
REMARK   11  A    between atoms: O_13  and  C_53
REMARK   12  A    between atoms: C_17  and  C_29
REMARK   13  A    between atoms: C_18  and  C_30
REMARK   14  A    between atoms: C_22  and  C_33
REMARK   15  A    between atoms: C_40  and  C_42
REMARK   16  A    between atoms: C_46  and  C_48
REMARK   17  A    between atoms: C_52  and  C_54
REMARK                            x       y       z     vdW  Elec       q    Type
REMARK                         _______ _______ _______ _____ _____    ______ ____
ROOT
ATOM      1  O   UNL     1     -60.356 -53.198 -18.347  0.00  0.00    +0.000 OA
ATOM      2  C   UNL     1     -60.962 -54.201 -19.159  0.00  0.00    +0.000 C 
ATOM      3  C   UNL     1     -60.186 -55.521 -19.129  0.00  0.00    +0.000 C 
ATOM      4  C   UNL     1     -59.106 -55.507 -18.058  0.00  0.00    +0.000 C 
ATOM      5  C   UNL     1     -60.326 -53.559 -16.960  0.00  0.00    +0.000 C 
ATOM      6  C   UNL     1     -59.559 -54.882 -16.723  0.00  0.00    +0.000 C 
ATOM      7  C   UNL     1     -59.667 -52.397 -16.218  0.00  0.00    +0.000 C 
ENDROOT
BRANCH   4   8
ATOM      8  O   UNL     1     -58.504 -56.788 -17.906  0.00  0.00    +0.000 OA
ATOM      9  H   UNL     1     -58.001 -56.757 -17.065  0.00  0.00    +0.000 HD
ENDBRANCH   4   8
BRANCH   2  10
ATOM     10  O   UNL     1     -61.168 -53.755 -20.499  0.00  0.00    +0.000 OA
BRANCH  10  29
ATOM     11  C   UNL     1     -57.568 -57.706 -26.154  0.00  0.00    +0.000 C 
ATOM     12  C   UNL     1     -58.251 -56.866 -25.040  0.00  0.00    +0.000 C 
ATOM     13  C   UNL     1     -59.233 -55.798 -25.585  0.00  0.00    +0.000 C 
ATOM     14  C   UNL     1     -58.551 -58.283 -27.212  0.00  0.00    +0.000 C 
ATOM     15  C   UNL     1     -59.931 -54.948 -24.446  0.00  0.00    +0.000 C 
ATOM     16  C   UNL     1     -58.856 -54.405 -23.447  0.00  0.00    +0.000 C 
ATOM     17  C   UNL     1     -60.227 -56.452 -26.567  0.00  0.00    +0.000 C 
ATOM     18  C   UNL     1     -59.515 -57.178 -27.709  0.00  0.00    +0.000 C 
ATOM     19  C   UNL     1     -57.560 -58.743 -28.329  0.00  0.00    +0.000 C 
ATOM     20  C   UNL     1     -57.213 -56.219 -24.111  0.00  0.00    +0.000 C 
ATOM     21  C   UNL     1     -56.532 -56.940 -26.996  0.00  0.00    +0.000 C 
ATOM     22  C   UNL     1     -57.889 -55.497 -22.956  0.00  0.00    +0.000 C 
ATOM     23  C   UNL     1     -56.495 -57.629 -28.365  0.00  0.00    +0.000 C 
ATOM     24  C   UNL     1     -60.997 -55.773 -23.671  0.00  0.00    +0.000 C 
ATOM     25  C   UNL     1     -59.479 -53.692 -22.230  0.00  0.00    +0.000 C 
ATOM     26  C   UNL     1     -59.366 -59.473 -26.668  0.00  0.00    +0.000 C 
ATOM     27  C   UNL     1     -60.637 -53.737 -25.120  0.00  0.00    +0.000 C 
ATOM     28  C   UNL     1     -61.590 -55.037 -22.470  0.00  0.00    +0.000 C 
ATOM     29  C   UNL     1     -60.518 -54.548 -21.499  0.00  0.00    +0.000 C 
BRANCH  19  32
ATOM     30  O   UNL     1     -59.045 -60.476 -31.296  0.00  0.00    +0.000 OA
ATOM     31  O   UNL     1     -59.156 -58.856 -32.920  0.00  0.00    +0.000 OA
ATOM     32  C   UNL     1     -58.154 -59.115 -29.662  0.00  0.00    +0.000 C 
ATOM     33  C   UNL     1     -58.607 -60.501 -29.938  0.00  0.00    +0.000 C 
ATOM     34  C   UNL     1     -58.299 -58.369 -30.758  0.00  0.00    +0.000 C 
ATOM     35  C   UNL     1     -58.876 -59.223 -31.793  0.00  0.00    +0.000 C 
ENDBRANCH  19  32
BRANCH  11  36
ATOM     36  O   UNL     1     -56.847 -58.786 -25.537  0.00  0.00    +0.000 OA
ATOM     37  H   UNL     1     -57.002 -59.596 -26.051  0.00  0.00    +0.000 HD
ENDBRANCH  11  36
ENDBRANCH  10  29
ENDBRANCH   2  10
BRANCH   6  38
ATOM     38  O   UNL     1     -60.173 -55.692 -15.716  0.00  0.00    +0.000 OA
BRANCH  38  40
ATOM     39  O   UNL     1     -61.679 -55.430 -13.900  0.00  0.00    +0.000 OA
ATOM     40  C   UNL     1     -61.529 -55.602 -15.303  0.00  0.00    +0.000 C 
ATOM     41  C   UNL     1     -62.458 -56.689 -15.837  0.00  0.00    +0.000 C 
ATOM     42  C   UNL     1     -63.589 -57.016 -14.867  0.00  0.00    +0.000 C 
ATOM     43  C   UNL     1     -62.976 -54.890 -13.579  0.00  0.00    +0.000 C 
ATOM     44  C   UNL     1     -64.122 -55.815 -14.060  0.00  0.00    +0.000 C 
ATOM     45  C   UNL     1     -63.012 -54.709 -12.064  0.00  0.00    +0.000 C 
BRANCH  42  46
ATOM     46  O   UNL     1     -64.637 -57.724 -15.529  0.00  0.00    +0.000 OA
ATOM     47  H   UNL     1     -64.456 -57.712 -16.485  0.00  0.00    +0.000 HD
ENDBRANCH  42  46
BRANCH  44  48
ATOM     48  O   UNL     1     -65.212 -55.067 -14.613  0.00  0.00    +0.000 OA
BRANCH  48  50
ATOM     49  O   UNL     1     -65.680 -52.836 -15.175  0.00  0.00    +0.000 OA
ATOM     50  C   UNL     1     -64.927 -53.997 -15.506  0.00  0.00    +0.000 C 
ATOM     51  C   UNL     1     -65.331 -54.474 -16.905  0.00  0.00    +0.000 C 
ATOM     52  C   UNL     1     -65.750 -53.319 -17.812  0.00  0.00    +0.000 C 
ATOM     53  C   UNL     1     -65.301 -51.683 -15.950  0.00  0.00    +0.000 C 
ATOM     54  C   UNL     1     -65.030 -52.025 -17.427  0.00  0.00    +0.000 C 
ATOM     55  C   UNL     1     -66.446 -50.686 -15.813  0.00  0.00    +0.000 C 
BRANCH  52  56
ATOM     56  O   UNL     1     -65.423 -53.653 -19.166  0.00  0.00    +0.000 OA
ATOM     57  H   UNL     1     -66.043 -53.174 -19.744  0.00  0.00    +0.000 HD
ENDBRANCH  52  56
BRANCH  54  58
ATOM     58  O   UNL     1     -63.617 -52.225 -17.613  0.00  0.00    +0.000 OA
ATOM     59  H   UNL     1     -63.427 -51.944 -18.532  0.00  0.00    +0.000 HD
ENDBRANCH  54  58
ENDBRANCH  48  50
ENDBRANCH  44  48
ENDBRANCH  38  40
ENDBRANCH   6  38
TORSDOF 12
ENDMDL
MODEL 8
REMARK VINA RESULT:      -6.6     46.376     54.172
REMARK  Name = 
REMARK  17 active torsions:
REMARK  status: ('A' for Active; 'I' for Inactive)
REMARK    1  A    between atoms: O_1  and  C_14
REMARK    2  A    between atoms: O_2  and  C_32
REMARK    3  A    between atoms: O_2  and  C_36
REMARK    4  A    between atoms: O_6  and  C_39
REMARK    5  A    between atoms: O_7  and  C_41
REMARK    6  A    between atoms: O_7  and  C_43
REMARK    7  A    between atoms: O_9  and  C_47
REMARK    8  A    between atoms: O_9  and  C_49
REMARK    9  A    between atoms: O_10  and  C_45
REMARK   10  A    between atoms: O_12  and  C_51
REMARK   11  A    between atoms: O_13  and  C_53
REMARK   12  A    between atoms: C_17  and  C_29
REMARK   13  A    between atoms: C_18  and  C_30
REMARK   14  A    between atoms: C_22  and  C_33
REMARK   15  A    between atoms: C_40  and  C_42
REMARK   16  A    between atoms: C_46  and  C_48
REMARK   17  A    between atoms: C_52  and  C_54
REMARK                            x       y       z     vdW  Elec       q    Type
REMARK                         _______ _______ _______ _____ _____    ______ ____
ROOT
ATOM      1  O   UNL     1     -63.683 -48.870 -20.760  0.00  0.00    +0.000 OA
ATOM      2  C   UNL     1     -62.610 -49.734 -20.395  0.00  0.00    +0.000 C 
ATOM      3  C   UNL     1     -62.303 -49.679 -18.896  0.00  0.00    +0.000 C 
ATOM      4  C   UNL     1     -63.370 -48.905 -18.137  0.00  0.00    +0.000 C 
ATOM      5  C   UNL     1     -64.919 -49.235 -20.133  0.00  0.00    +0.000 C 
ATOM      6  C   UNL     1     -64.810 -49.222 -18.589  0.00  0.00    +0.000 C 
ATOM      7  C   UNL     1     -65.970 -48.239 -20.621  0.00  0.00    +0.000 C 
ENDROOT
BRANCH   4   8
ATOM      8  O   UNL     1     -63.187 -49.002 -16.729  0.00  0.00    +0.000 OA
ATOM      9  H   UNL     1     -62.253 -48.759 -16.556  0.00  0.00    +0.000 HD
ENDBRANCH   4   8
BRANCH   2  10
ATOM     10  O   UNL     1     -61.436 -49.490 -21.170  0.00  0.00    +0.000 OA
BRANCH  10  29
ATOM     11  C   UNL     1     -58.192 -55.664 -24.621  0.00  0.00    +0.000 C 
ATOM     12  C   UNL     1     -58.812 -54.394 -23.976  0.00  0.00    +0.000 C 
ATOM     13  C   UNL     1     -59.966 -53.778 -24.808  0.00  0.00    +0.000 C 
ATOM     14  C   UNL     1     -59.235 -56.725 -25.072  0.00  0.00    +0.000 C 
ATOM     15  C   UNL     1     -60.599 -52.488 -24.144  0.00  0.00    +0.000 C 
ATOM     16  C   UNL     1     -59.468 -51.483 -23.741  0.00  0.00    +0.000 C 
ATOM     17  C   UNL     1     -61.002 -54.868 -25.153  0.00  0.00    +0.000 C 
ATOM     18  C   UNL     1     -60.369 -56.053 -25.883  0.00  0.00    +0.000 C 
ATOM     19  C   UNL     1     -58.353 -57.661 -25.959  0.00  0.00    +0.000 C 
ATOM     20  C   UNL     1     -57.739 -53.336 -23.678  0.00  0.00    +0.000 C 
ATOM     21  C   UNL     1     -57.363 -55.403 -25.890  0.00  0.00    +0.000 C 
ATOM     22  C   UNL     1     -58.333 -52.147 -22.942  0.00  0.00    +0.000 C 
ATOM     23  C   UNL     1     -57.428 -56.690 -26.720  0.00  0.00    +0.000 C 
ATOM     24  C   UNL     1     -61.459 -52.834 -22.897  0.00  0.00    +0.000 C 
ATOM     25  C   UNL     1     -60.002 -50.268 -22.956  0.00  0.00    +0.000 C 
ATOM     26  C   UNL     1     -59.840 -57.497 -23.881  0.00  0.00    +0.000 C 
ATOM     27  C   UNL     1     -61.512 -51.807 -25.202  0.00  0.00    +0.000 C 
ATOM     28  C   UNL     1     -61.969 -51.607 -22.141  0.00  0.00    +0.000 C 
ATOM     29  C   UNL     1     -60.839 -50.663 -21.735  0.00  0.00    +0.000 C 
BRANCH  19  32
ATOM     30  O   UNL     1     -60.003 -60.704 -27.382  0.00  0.00    +0.000 OA
ATOM     31  O   UNL     1     -60.520 -60.128 -29.544  0.00  0.00    +0.000 OA
ATOM     32  C   UNL     1     -59.070 -58.675 -26.810  0.00  0.00    +0.000 C 
ATOM     33  C   UNL     1     -59.389 -60.027 -26.287  0.00  0.00    +0.000 C 
ATOM     34  C   UNL     1     -59.447 -58.588 -28.086  0.00  0.00    +0.000 C 
ATOM     35  C   UNL     1     -60.052 -59.868 -28.451  0.00  0.00    +0.000 C 
ENDBRANCH  19  32
BRANCH  11  36
ATOM     36  O   UNL     1     -57.284 -56.260 -23.678  0.00  0.00    +0.000 OA
ATOM     37  H   UNL     1     -56.382 -55.964 -23.887  0.00  0.00    +0.000 HD
ENDBRANCH  11  36
ENDBRANCH  10  29
ENDBRANCH   2  10
BRANCH   6  38
ATOM     38  O   UNL     1     -65.539 -50.295 -17.985  0.00  0.00    +0.000 OA
BRANCH  38  40
ATOM     39  O   UNL     1     -64.704 -52.339 -18.857  0.00  0.00    +0.000 OA
ATOM     40  C   UNL     1     -65.015 -51.583 -17.695  0.00  0.00    +0.000 C 
ATOM     41  C   UNL     1     -65.806 -52.407 -16.684  0.00  0.00    +0.000 C 
ATOM     42  C   UNL     1     -65.706 -53.907 -16.950  0.00  0.00    +0.000 C 
ATOM     43  C   UNL     1     -63.777 -53.399 -18.555  0.00  0.00    +0.000 C 
ATOM     44  C   UNL     1     -64.345 -54.381 -17.499  0.00  0.00    +0.000 C 
ATOM     45  C   UNL     1     -63.485 -54.115 -19.871  0.00  0.00    +0.000 C 
BRANCH  42  46
ATOM     46  O   UNL     1     -66.110 -54.654 -15.803  0.00  0.00    +0.000 OA
ATOM     47  H   UNL     1     -66.382 -55.541 -16.097  0.00  0.00    +0.000 HD
ENDBRANCH  42  46
BRANCH  44  48
ATOM     48  O   UNL     1     -63.345 -54.782 -16.555  0.00  0.00    +0.000 OA
BRANCH  48  50
ATOM     49  O   UNL     1     -64.035 -56.894 -15.794  0.00  0.00    +0.000 OA
ATOM     50  C   UNL     1     -63.010 -56.161 -16.454  0.00  0.00    +0.000 C 
ATOM     51  C   UNL     1     -61.723 -56.241 -15.626  0.00  0.00    +0.000 C 
ATOM     52  C   UNL     1     -61.612 -57.555 -14.855  0.00  0.00    +0.000 C 
ATOM     53  C   UNL     1     -63.812 -58.316 -15.818  0.00  0.00    +0.000 C 
ATOM     54  C   UNL     1     -62.335 -58.687 -15.587  0.00  0.00    +0.000 C 
ATOM     55  C   UNL     1     -64.707 -58.903 -14.732  0.00  0.00    +0.000 C 
BRANCH  52  56
ATOM     56  O   UNL     1     -60.226 -57.894 -14.718  0.00  0.00    +0.000 OA
ATOM     57  H   UNL     1     -59.772 -57.119 -14.342  0.00  0.00    +0.000 HD
ENDBRANCH  52  56
BRANCH  54  58
ATOM     58  O   UNL     1     -61.693 -58.881 -16.860  0.00  0.00    +0.000 OA
ATOM     59  H   UNL     1     -62.406 -59.137 -17.481  0.00  0.00    +0.000 HD
ENDBRANCH  54  58
ENDBRANCH  48  50
ENDBRANCH  44  48
ENDBRANCH  38  40
ENDBRANCH   6  38
TORSDOF 12
ENDMDL
MODEL 9
REMARK VINA RESULT:      -6.6     48.944     56.000
REMARK  Name = 
REMARK  17 active torsions:
REMARK  status: ('A' for Active; 'I' for Inactive)
REMARK    1  A    between atoms: O_1  and  C_14
REMARK    2  A    between atoms: O_2  and  C_32
REMARK    3  A    between atoms: O_2  and  C_36
REMARK    4  A    between atoms: O_6  and  C_39
REMARK    5  A    between atoms: O_7  and  C_41
REMARK    6  A    between atoms: O_7  and  C_43
REMARK    7  A    between atoms: O_9  and  C_47
REMARK    8  A    between atoms: O_9  and  C_49
REMARK    9  A    between atoms: O_10  and  C_45
REMARK   10  A    between atoms: O_12  and  C_51
REMARK   11  A    between atoms: O_13  and  C_53
REMARK   12  A    between atoms: C_17  and  C_29
REMARK   13  A    between atoms: C_18  and  C_30
REMARK   14  A    between atoms: C_22  and  C_33
REMARK   15  A    between atoms: C_40  and  C_42
REMARK   16  A    between atoms: C_46  and  C_48
REMARK   17  A    between atoms: C_52  and  C_54
REMARK                            x       y       z     vdW  Elec       q    Type
REMARK                         _______ _______ _______ _____ _____    ______ ____
ROOT
ATOM      1  O   UNL     1     -64.167 -45.045 -22.920  0.00  0.00    +0.000 OA
ATOM      2  C   UNL     1     -64.025 -46.385 -22.457  0.00  0.00    +0.000 C 
ATOM      3  C   UNL     1     -65.108 -47.312 -23.018  0.00  0.00    +0.000 C 
ATOM      4  C   UNL     1     -65.913 -46.628 -24.112  0.00  0.00    +0.000 C 
ATOM      5  C   UNL     1     -64.022 -44.937 -24.341  0.00  0.00    +0.000 C 
ATOM      6  C   UNL     1     -65.056 -45.805 -25.096  0.00  0.00    +0.000 C 
ATOM      7  C   UNL     1     -64.184 -43.457 -24.688  0.00  0.00    +0.000 C 
ENDROOT
BRANCH   4   8
ATOM      8  O   UNL     1     -66.798 -47.537 -24.758  0.00  0.00    +0.000 OA
ATOM      9  H   UNL     1     -67.576 -47.011 -25.038  0.00  0.00    +0.000 HD
ENDBRANCH   4   8
BRANCH   2  10
ATOM     10  O   UNL     1     -63.973 -46.459 -21.032  0.00  0.00    +0.000 OA
BRANCH  10  29
ATOM     11  C   UNL     1     -65.193 -53.398 -17.730  0.00  0.00    +0.000 C 
ATOM     12  C   UNL     1     -64.991 -51.987 -18.347  0.00  0.00    +0.000 C 
ATOM     13  C   UNL     1     -64.163 -51.032 -17.450  0.00  0.00    +0.000 C 
ATOM     14  C   UNL     1     -63.888 -54.058 -17.202  0.00  0.00    +0.000 C 
ATOM     15  C   UNL     1     -63.954 -49.597 -18.086  0.00  0.00    +0.000 C 
ATOM     16  C   UNL     1     -65.326 -49.021 -18.570  0.00  0.00    +0.000 C 
ATOM     17  C   UNL     1     -62.848 -51.720 -17.028  0.00  0.00    +0.000 C 
ATOM     18  C   UNL     1     -63.096 -53.056 -16.327  0.00  0.00    +0.000 C 
ATOM     19  C   UNL     1     -64.463 -55.243 -16.363  0.00  0.00    +0.000 C 
ATOM     20  C   UNL     1     -66.333 -51.343 -18.724  0.00  0.00    +0.000 C 
ATOM     21  C   UNL     1     -66.142 -53.442 -16.518  0.00  0.00    +0.000 C 
ATOM     22  C   UNL     1     -66.123 -50.015 -19.433  0.00  0.00    +0.000 C 
ATOM     23  C   UNL     1     -65.705 -54.644 -15.672  0.00  0.00    +0.000 C 
ATOM     24  C   UNL     1     -62.950 -49.624 -19.272  0.00  0.00    +0.000 C 
ATOM     25  C   UNL     1     -65.177 -47.689 -19.333  0.00  0.00    +0.000 C 
ATOM     26  C   UNL     1     -62.987 -54.571 -18.343  0.00  0.00    +0.000 C 
ATOM     27  C   UNL     1     -63.388 -48.664 -16.979  0.00  0.00    +0.000 C 
ATOM     28  C   UNL     1     -62.830 -48.289 -20.006  0.00  0.00    +0.000 C 
ATOM     29  C   UNL     1     -64.181 -47.769 -20.493  0.00  0.00    +0.000 C 
BRANCH  19  32
ATOM     30  O   UNL     1     -61.833 -57.440 -14.858  0.00  0.00    +0.000 OA
ATOM     31  O   UNL     1     -62.022 -57.106 -12.594  0.00  0.00    +0.000 OA
ATOM     32  C   UNL     1     -63.506 -55.970 -15.457  0.00  0.00    +0.000 C 
ATOM     33  C   UNL     1     -62.502 -56.916 -16.005  0.00  0.00    +0.000 C 
ATOM     34  C   UNL     1     -63.435 -55.964 -14.125  0.00  0.00    +0.000 C 
ATOM     35  C   UNL     1     -62.367 -56.883 -13.740  0.00  0.00    +0.000 C 
ENDBRANCH  19  32
BRANCH  11  36
ATOM     36  O   UNL     1     -65.789 -54.251 -18.722  0.00  0.00    +0.000 OA
ATOM     37  H   UNL     1     -65.631 -55.177 -18.470  0.00  0.00    +0.000 HD
ENDBRANCH  11  36
ENDBRANCH  10  29
ENDBRANCH   2  10
BRANCH   6  38
ATOM     38  O   UNL     1     -64.499 -46.422 -26.260  0.00  0.00    +0.000 OA
BRANCH  38  40
ATOM     39  O   UNL     1     -62.419 -47.553 -26.418  0.00  0.00    +0.000 OA
ATOM     40  C   UNL     1     -63.829 -47.674 -26.287  0.00  0.00    +0.000 C 
ATOM     41  C   UNL     1     -64.396 -48.709 -27.254  0.00  0.00    +0.000 C 
ATOM     42  C   UNL     1     -63.322 -49.644 -27.802  0.00  0.00    +0.000 C 
ATOM     43  C   UNL     1     -61.753 -48.754 -25.984  0.00  0.00    +0.000 C 
ATOM     44  C   UNL     1     -62.193 -49.990 -26.809  0.00  0.00    +0.000 C 
ATOM     45  C   UNL     1     -60.254 -48.501 -26.129  0.00  0.00    +0.000 C 
BRANCH  42  46
ATOM     46  O   UNL     1     -63.909 -50.812 -28.373  0.00  0.00    +0.000 OA
ATOM     47  H   UNL     1     -64.871 -50.672 -28.433  0.00  0.00    +0.000 HD
ENDBRANCH  42  46
BRANCH  44  48
ATOM     48  O   UNL     1     -62.360 -51.148 -25.982  0.00  0.00    +0.000 OA
BRANCH  48  50
ATOM     49  O   UNL     1     -60.176 -52.007 -25.916  0.00  0.00    +0.000 OA
ATOM     50  C   UNL     1     -61.284 -51.556 -25.146  0.00  0.00    +0.000 C 
ATOM     51  C   UNL     1     -61.806 -52.717 -24.293  0.00  0.00    +0.000 C 
ATOM     52  C   UNL     1     -60.696 -53.685 -23.891  0.00  0.00    +0.000 C 
ATOM     53  C   UNL     1     -59.008 -52.272 -25.116  0.00  0.00    +0.000 C 
ATOM     54  C   UNL     1     -59.349 -52.967 -23.785  0.00  0.00    +0.000 C 
ATOM     55  C   UNL     1     -58.094 -53.139 -25.975  0.00  0.00    +0.000 C 
BRANCH  52  56
ATOM     56  O   UNL     1     -61.023 -54.260 -22.619  0.00  0.00    +0.000 OA
ATOM     57  H   UNL     1     -61.986 -54.402 -22.602  0.00  0.00    +0.000 HD
ENDBRANCH  52  56
BRANCH  54  58
ATOM     58  O   UNL     1     -59.449 -51.975 -22.748  0.00  0.00    +0.000 OA
ATOM     59  H   UNL     1     -58.871 -51.236 -23.029  0.00  0.00    +0.000 HD
ENDBRANCH  54  58
ENDBRANCH  48  50
ENDBRANCH  44  48
ENDBRANCH  38  40
ENDBRANCH   6  38
TORSDOF 12
ENDMDL
