MODEL 1
REMARK VINA RESULT:      -6.1      0.000      0.000
REMARK  Name = Cdk12_Inhibitor.pdbqt.pdb
REMARK  6 active torsions:
REMARK  status: ('A' for Active; 'I' for Inactive)
REMARK    1  A    between atoms: N_1  and  C_23
REMARK    2  A    between atoms: N_9  and  C_11
REMARK    3  A    between atoms: C_14  and  S_17
REMARK    4  A    between atoms: S_17  and  N_20
REMARK    5  A    between atoms: C_23  and  N_25
REMARK    6  A    between atoms: N_25  and  C_27
REMARK                            x       y       z     vdW  Elec       q    Type
REMARK                         _______ _______ _______ _____ _____    ______ ____
ROOT
ATOM      1  N   UNL     1     -68.251 -59.366 -37.676  0.00  0.00    +0.000 N 
ATOM      2  N   UNL     1     -68.677 -59.000 -36.439  0.00  0.00    +0.000 NA
ATOM      3  N   UNL     1     -67.271 -60.773 -36.276  0.00  0.00    +0.000 NA
ATOM      4  N   UNL     1     -66.913 -61.209 -38.571  0.00  0.00    +0.000 N 
ATOM      5  C   UNL     1     -68.040 -59.846 -35.635  0.00  0.00    +0.000 A 
ATOM      6  C   UNL     1     -67.441 -60.498 -37.543  0.00  0.00    +0.000 A 
ATOM      7  H   UNL     1     -67.554 -61.459 -39.326  0.00  0.00    +0.000 HD
ATOM      8  H   UNL     1     -66.431 -62.051 -38.255  0.00  0.00    +0.000 HD
ATOM      9  N   UNL     1     -68.065 -59.915 -34.293  0.00  0.00    +0.000 N 
ATOM     10  H   UNL     1     -67.495 -60.645 -33.884  0.00  0.00    +0.000 HD
ENDROOT
BRANCH   9  11
ATOM     11  C   UNL     1     -68.739 -59.115 -33.354  0.00  0.00    +0.000 A 
ATOM     12  C   UNL     1     -68.110 -57.962 -32.865  0.00  0.00    +0.000 A 
ATOM     13  C   UNL     1     -68.730 -57.145 -31.924  0.00  0.00    +0.000 A 
ATOM     14  C   UNL     1     -69.988 -57.494 -31.453  0.00  0.00    +0.000 A 
ATOM     15  C   UNL     1     -70.650 -58.619 -31.929  0.00  0.00    +0.000 A 
ATOM     16  C   UNL     1     -70.015 -59.426 -32.868  0.00  0.00    +0.000 A 
BRANCH  14  17
ATOM     17  S   UNL     1     -70.803 -56.443 -30.319  0.00  0.00    +0.000 S 
ATOM     18  O   UNL     1     -71.833 -55.703 -31.011  0.00  0.00    +0.000 OA
ATOM     19  O   UNL     1     -71.065 -57.165 -29.098  0.00  0.00    +0.000 OA
BRANCH  17  20
ATOM     20  N   UNL     1     -69.610 -55.320 -29.951  0.00  0.00    +0.000 NA
ATOM     21  H   UNL     1     -69.639 -55.102 -28.955  0.00  0.00    +0.000 HD
ATOM     22  H   UNL     1     -68.704 -55.664 -30.272  0.00  0.00    +0.000 HD
ENDBRANCH  17  20
ENDBRANCH  14  17
ENDBRANCH   9  11
BRANCH   1  23
ATOM     23  C   UNL     1     -68.628 -58.615 -38.828  0.00  0.00    +0.000 C 
ATOM     24  S   UNL     1     -70.213 -58.411 -39.368  0.00  0.00    +0.000 S 
BRANCH  23  25
ATOM     25  N   UNL     1     -67.502 -57.970 -39.355  0.00  0.00    +0.000 N 
ATOM     26  H   UNL     1     -66.608 -58.456 -39.228  0.00  0.00    +0.000 HD
BRANCH  25  27
ATOM     27  C   UNL     1     -67.357 -56.635 -39.818  0.00  0.00    +0.000 A 
ATOM     28  C   UNL     1     -67.404 -55.617 -38.859  0.00  0.00    +0.000 A 
ATOM     29  F   UNL     1     -67.595 -55.940 -37.569  0.00  0.00    +0.000 F 
ATOM     30  C   UNL     1     -67.266 -54.276 -39.203  0.00  0.00    +0.000 A 
ATOM     31  C   UNL     1     -67.050 -53.931 -40.533  0.00  0.00    +0.000 A 
ATOM     32  C   UNL     1     -66.933 -54.927 -41.497  0.00  0.00    +0.000 A 
ATOM     33  C   UNL     1     -67.077 -56.268 -41.137  0.00  0.00    +0.000 A 
ATOM     34  F   UNL     1     -66.778 -57.192 -42.061  0.00  0.00    +0.000 F 
ENDBRANCH  25  27
ENDBRANCH  23  25
ENDBRANCH   1  23
TORSDOF 6
ENDMDL
MODEL 2
REMARK VINA RESULT:      -6.0     18.438     22.530
REMARK  Name = Cdk12_Inhibitor.pdbqt.pdb
REMARK  6 active torsions:
REMARK  status: ('A' for Active; 'I' for Inactive)
REMARK    1  A    between atoms: N_1  and  C_23
REMARK    2  A    between atoms: N_9  and  C_11
REMARK    3  A    between atoms: C_14  and  S_17
REMARK    4  A    between atoms: S_17  and  N_20
REMARK    5  A    between atoms: C_23  and  N_25
REMARK    6  A    between atoms: N_25  and  C_27
REMARK                            x       y       z     vdW  Elec       q    Type
REMARK                         _______ _______ _______ _____ _____    ______ ____
ROOT
ATOM      1  N   UNL     1     -63.635 -45.180 -54.891  0.00  0.00    +0.000 N 
ATOM      2  N   UNL     1     -63.961 -46.422 -54.448  0.00  0.00    +0.000 NA
ATOM      3  N   UNL     1     -63.679 -45.025 -52.683  0.00  0.00    +0.000 NA
ATOM      4  N   UNL     1     -62.961 -43.084 -53.824  0.00  0.00    +0.000 N 
ATOM      5  C   UNL     1     -64.009 -46.272 -53.127  0.00  0.00    +0.000 A 
ATOM      6  C   UNL     1     -63.405 -44.365 -53.778  0.00  0.00    +0.000 A 
ATOM      7  H   UNL     1     -62.155 -42.904 -54.424  0.00  0.00    +0.000 HD
ATOM      8  H   UNL     1     -62.773 -42.704 -52.896  0.00  0.00    +0.000 HD
ATOM      9  N   UNL     1     -64.321 -47.179 -52.186  0.00  0.00    +0.000 N 
ATOM     10  H   UNL     1     -64.294 -46.842 -51.232  0.00  0.00    +0.000 HD
ENDROOT
BRANCH   9  11
ATOM     11  C   UNL     1     -64.707 -48.525 -52.313  0.00  0.00    +0.000 A 
ATOM     12  C   UNL     1     -65.939 -48.933 -51.783  0.00  0.00    +0.000 A 
ATOM     13  C   UNL     1     -66.360 -50.257 -51.870  0.00  0.00    +0.000 A 
ATOM     14  C   UNL     1     -65.531 -51.188 -52.481  0.00  0.00    +0.000 A 
ATOM     15  C   UNL     1     -64.312 -50.816 -53.035  0.00  0.00    +0.000 A 
ATOM     16  C   UNL     1     -63.905 -49.489 -52.937  0.00  0.00    +0.000 A 
BRANCH  14  17
ATOM     17  S   UNL     1     -66.075 -52.840 -52.653  0.00  0.00    +0.000 S 
ATOM     18  O   UNL     1     -66.007 -53.221 -54.045  0.00  0.00    +0.000 OA
ATOM     19  O   UNL     1     -65.498 -53.648 -51.607  0.00  0.00    +0.000 OA
BRANCH  17  20
ATOM     20  N   UNL     1     -67.712 -52.716 -52.298  0.00  0.00    +0.000 NA
ATOM     21  H   UNL     1     -67.857 -51.995 -51.591  0.00  0.00    +0.000 HD
ATOM     22  H   UNL     1     -68.239 -52.561 -53.159  0.00  0.00    +0.000 HD
ENDBRANCH  17  20
ENDBRANCH  14  17
ENDBRANCH   9  11
BRANCH   1  23
ATOM     23  C   UNL     1     -63.593 -44.892 -56.286  0.00  0.00    +0.000 C 
ATOM     24  S   UNL     1     -64.374 -43.592 -57.025  0.00  0.00    +0.000 S 
BRANCH  23  25
ATOM     25  N   UNL     1     -62.704 -45.770 -56.919  0.00  0.00    +0.000 N 
ATOM     26  H   UNL     1     -61.872 -46.029 -56.379  0.00  0.00    +0.000 HD
BRANCH  25  27
ATOM     27  C   UNL     1     -62.638 -46.166 -58.281  0.00  0.00    +0.000 A 
ATOM     28  C   UNL     1     -61.387 -46.097 -58.906  0.00  0.00    +0.000 A 
ATOM     29  F   UNL     1     -60.329 -45.653 -58.209  0.00  0.00    +0.000 F 
ATOM     30  C   UNL     1     -61.208 -46.468 -60.236  0.00  0.00    +0.000 A 
ATOM     31  C   UNL     1     -62.294 -46.945 -60.963  0.00  0.00    +0.000 A 
ATOM     32  C   UNL     1     -63.533 -47.086 -60.346  0.00  0.00    +0.000 A 
ATOM     33  C   UNL     1     -63.698 -46.707 -59.013  0.00  0.00    +0.000 A 
ATOM     34  F   UNL     1     -64.854 -47.029 -58.417  0.00  0.00    +0.000 F 
ENDBRANCH  25  27
ENDBRANCH  23  25
ENDBRANCH   1  23
TORSDOF 6
ENDMDL
MODEL 3
REMARK VINA RESULT:      -6.0      3.882      5.614
REMARK  Name = Cdk12_Inhibitor.pdbqt.pdb
REMARK  6 active torsions:
REMARK  status: ('A' for Active; 'I' for Inactive)
REMARK    1  A    between atoms: N_1  and  C_23
REMARK    2  A    between atoms: N_9  and  C_11
REMARK    3  A    between atoms: C_14  and  S_17
REMARK    4  A    between atoms: S_17  and  N_20
REMARK    5  A    between atoms: C_23  and  N_25
REMARK    6  A    between atoms: N_25  and  C_27
REMARK                            x       y       z     vdW  Elec       q    Type
REMARK                         _______ _______ _______ _____ _____    ______ ____
ROOT
ATOM      1  N   UNL     1     -67.025 -55.941 -40.571  0.00  0.00    +0.000 N 
ATOM      2  N   UNL     1     -67.302 -56.813 -39.566  0.00  0.00    +0.000 NA
ATOM      3  N   UNL     1     -67.374 -54.686 -38.781  0.00  0.00    +0.000 NA
ATOM      4  N   UNL     1     -66.675 -53.524 -40.717  0.00  0.00    +0.000 N 
ATOM      5  C   UNL     1     -67.537 -56.016 -38.528  0.00  0.00    +0.000 A 
ATOM      6  C   UNL     1     -67.013 -54.649 -40.037  0.00  0.00    +0.000 A 
ATOM      7  H   UNL     1     -65.813 -53.566 -41.263  0.00  0.00    +0.000 HD
ATOM      8  H   UNL     1     -66.643 -52.701 -40.115  0.00  0.00    +0.000 HD
ATOM      9  N   UNL     1     -67.895 -56.347 -37.275  0.00  0.00    +0.000 N 
ATOM     10  H   UNL     1     -68.023 -55.569 -36.640  0.00  0.00    +0.000 HD
ENDROOT
BRANCH   9  11
ATOM     11  C   UNL     1     -68.148 -57.607 -36.704  0.00  0.00    +0.000 A 
ATOM     12  C   UNL     1     -67.208 -58.155 -35.821  0.00  0.00    +0.000 A 
ATOM     13  C   UNL     1     -67.406 -59.406 -35.242  0.00  0.00    +0.000 A 
ATOM     14  C   UNL     1     -68.550 -60.124 -35.563  0.00  0.00    +0.000 A 
ATOM     15  C   UNL     1     -69.512 -59.603 -36.419  0.00  0.00    +0.000 A 
ATOM     16  C   UNL     1     -69.298 -58.352 -36.991  0.00  0.00    +0.000 A 
BRANCH  14  17
ATOM     17  S   UNL     1     -68.840 -61.666 -34.794  0.00  0.00    +0.000 S 
ATOM     18  O   UNL     1     -69.644 -61.464 -33.610  0.00  0.00    +0.000 OA
ATOM     19  O   UNL     1     -69.182 -62.646 -35.796  0.00  0.00    +0.000 OA
BRANCH  17  20
ATOM     20  N   UNL     1     -67.311 -62.081 -34.236  0.00  0.00    +0.000 NA
ATOM     21  H   UNL     1     -67.288 -62.020 -33.218  0.00  0.00    +0.000 HD
ATOM     22  H   UNL     1     -67.051 -62.999 -34.600  0.00  0.00    +0.000 HD
ENDBRANCH  17  20
ENDBRANCH  14  17
ENDBRANCH   9  11
BRANCH   1  23
ATOM     23  C   UNL     1     -66.822 -56.406 -41.903  0.00  0.00    +0.000 C 
ATOM     24  S   UNL     1     -67.758 -55.956 -43.232  0.00  0.00    +0.000 S 
BRANCH  23  25
ATOM     25  N   UNL     1     -65.655 -57.178 -41.957  0.00  0.00    +0.000 N 
ATOM     26  H   UNL     1     -65.347 -57.586 -41.068  0.00  0.00    +0.000 HD
BRANCH  25  27
ATOM     27  C   UNL     1     -64.688 -57.287 -42.991  0.00  0.00    +0.000 A 
ATOM     28  C   UNL     1     -63.406 -56.791 -42.722  0.00  0.00    +0.000 A 
ATOM     29  F   UNL     1     -63.157 -56.233 -41.526  0.00  0.00    +0.000 F 
ATOM     30  C   UNL     1     -62.381 -56.853 -43.661  0.00  0.00    +0.000 A 
ATOM     31  C   UNL     1     -62.623 -57.444 -44.897  0.00  0.00    +0.000 A 
ATOM     32  C   UNL     1     -63.868 -58.004 -45.165  0.00  0.00    +0.000 A 
ATOM     33  C   UNL     1     -64.887 -57.931 -44.214  0.00  0.00    +0.000 A 
ATOM     34  F   UNL     1     -66.002 -58.638 -44.447  0.00  0.00    +0.000 F 
ENDBRANCH  25  27
ENDBRANCH  23  25
ENDBRANCH   1  23
TORSDOF 6
ENDMDL
MODEL 4
REMARK VINA RESULT:      -5.8     26.288     29.910
REMARK  Name = Cdk12_Inhibitor.pdbqt.pdb
REMARK  6 active torsions:
REMARK  status: ('A' for Active; 'I' for Inactive)
REMARK    1  A    between atoms: N_1  and  C_23
REMARK    2  A    between atoms: N_9  and  C_11
REMARK    3  A    between atoms: C_14  and  S_17
REMARK    4  A    between atoms: S_17  and  N_20
REMARK    5  A    between atoms: C_23  and  N_25
REMARK    6  A    between atoms: N_25  and  C_27
REMARK                            x       y       z     vdW  Elec       q    Type
REMARK                         _______ _______ _______ _____ _____    ______ ____
ROOT
ATOM      1  N   UNL     1     -61.854 -43.856 -59.341  0.00  0.00    +0.000 N 
ATOM      2  N   UNL     1     -60.603 -43.830 -59.871  0.00  0.00    +0.000 NA
ATOM      3  N   UNL     1     -61.996 -42.551 -61.123  0.00  0.00    +0.000 NA
ATOM      4  N   UNL     1     -64.040 -42.995 -60.023  0.00  0.00    +0.000 N 
ATOM      5  C   UNL     1     -60.730 -43.012 -60.912  0.00  0.00    +0.000 A 
ATOM      6  C   UNL     1     -62.697 -43.114 -60.173  0.00  0.00    +0.000 A 
ATOM      7  H   UNL     1     -64.558 -43.861 -59.869  0.00  0.00    +0.000 HD
ATOM      8  H   UNL     1     -64.474 -42.484 -60.792  0.00  0.00    +0.000 HD
ATOM      9  N   UNL     1     -59.790 -42.597 -61.778  0.00  0.00    +0.000 N 
ATOM     10  H   UNL     1     -60.113 -41.967 -62.501  0.00  0.00    +0.000 HD
ENDROOT
BRANCH   9  11
ATOM     11  C   UNL     1     -58.413 -42.878 -61.829  0.00  0.00    +0.000 A 
ATOM     12  C   UNL     1     -57.561 -42.276 -60.894  0.00  0.00    +0.000 A 
ATOM     13  C   UNL     1     -56.188 -42.510 -60.912  0.00  0.00    +0.000 A 
ATOM     14  C   UNL     1     -55.660 -43.345 -61.888  0.00  0.00    +0.000 A 
ATOM     15  C   UNL     1     -56.478 -43.975 -62.818  0.00  0.00    +0.000 A 
ATOM     16  C   UNL     1     -57.847 -43.728 -62.787  0.00  0.00    +0.000 A 
BRANCH  14  17
ATOM     17  S   UNL     1     -53.949 -43.698 -61.881  0.00  0.00    +0.000 S 
ATOM     18  O   UNL     1     -53.416 -43.499 -63.209  0.00  0.00    +0.000 OA
ATOM     19  O   UNL     1     -53.341 -43.107 -60.714  0.00  0.00    +0.000 OA
BRANCH  17  20
ATOM     20  N   UNL     1     -53.926 -45.358 -61.629  0.00  0.00    +0.000 NA
ATOM     21  H   UNL     1     -52.962 -45.680 -61.545  0.00  0.00    +0.000 HD
ATOM     22  H   UNL     1     -54.511 -45.591 -60.825  0.00  0.00    +0.000 HD
ENDBRANCH  17  20
ENDBRANCH  14  17
ENDBRANCH   9  11
BRANCH   1  23
ATOM     23  C   UNL     1     -62.115 -44.549 -58.123  0.00  0.00    +0.000 C 
ATOM     24  S   UNL     1     -62.235 -43.819 -56.607  0.00  0.00    +0.000 S 
BRANCH  23  25
ATOM     25  N   UNL     1     -62.386 -45.895 -58.399  0.00  0.00    +0.000 N 
ATOM     26  H   UNL     1     -61.568 -46.510 -58.471  0.00  0.00    +0.000 HD
BRANCH  25  27
ATOM     27  C   UNL     1     -63.590 -46.504 -58.842  0.00  0.00    +0.000 A 
ATOM     28  C   UNL     1     -63.596 -47.042 -60.134  0.00  0.00    +0.000 A 
ATOM     29  F   UNL     1     -62.489 -46.948 -60.888  0.00  0.00    +0.000 F 
ATOM     30  C   UNL     1     -64.720 -47.668 -60.665  0.00  0.00    +0.000 A 
ATOM     31  C   UNL     1     -65.866 -47.786 -59.886  0.00  0.00    +0.000 A 
ATOM     32  C   UNL     1     -65.866 -47.319 -58.576  0.00  0.00    +0.000 A 
ATOM     33  C   UNL     1     -64.732 -46.691 -58.059  0.00  0.00    +0.000 A 
ATOM     34  F   UNL     1     -64.718 -46.424 -56.745  0.00  0.00    +0.000 F 
ENDBRANCH  25  27
ENDBRANCH  23  25
ENDBRANCH   1  23
TORSDOF 6
ENDMDL
MODEL 5
REMARK VINA RESULT:      -5.7     16.452     20.030
REMARK  Name = Cdk12_Inhibitor.pdbqt.pdb
REMARK  6 active torsions:
REMARK  status: ('A' for Active; 'I' for Inactive)
REMARK    1  A    between atoms: N_1  and  C_23
REMARK    2  A    between atoms: N_9  and  C_11
REMARK    3  A    between atoms: C_14  and  S_17
REMARK    4  A    between atoms: S_17  and  N_20
REMARK    5  A    between atoms: C_23  and  N_25
REMARK    6  A    between atoms: N_25  and  C_27
REMARK                            x       y       z     vdW  Elec       q    Type
REMARK                         _______ _______ _______ _____ _____    ______ ____
ROOT
ATOM      1  N   UNL     1     -57.183 -56.915 -55.059  0.00  0.00    +0.000 N 
ATOM      2  N   UNL     1     -57.956 -57.025 -53.947  0.00  0.00    +0.000 NA
ATOM      3  N   UNL     1     -55.819 -56.546 -53.355  0.00  0.00    +0.000 NA
ATOM      4  N   UNL     1     -54.791 -56.621 -55.482  0.00  0.00    +0.000 N 
ATOM      5  C   UNL     1     -57.106 -56.764 -52.958  0.00  0.00    +0.000 A 
ATOM      6  C   UNL     1     -55.865 -56.686 -54.654  0.00  0.00    +0.000 A 
ATOM      7  H   UNL     1     -54.703 -57.368 -56.171  0.00  0.00    +0.000 HD
ATOM      8  H   UNL     1     -53.911 -56.538 -54.971  0.00  0.00    +0.000 HD
ATOM      9  N   UNL     1     -57.343 -56.700 -51.637  0.00  0.00    +0.000 N 
ATOM     10  H   UNL     1     -56.540 -56.482 -51.061  0.00  0.00    +0.000 HD
ENDROOT
BRANCH   9  11
ATOM     11  C   UNL     1     -58.542 -56.863 -50.920  0.00  0.00    +0.000 A 
ATOM     12  C   UNL     1     -59.449 -55.797 -50.858  0.00  0.00    +0.000 A 
ATOM     13  C   UNL     1     -60.642 -55.904 -50.149  0.00  0.00    +0.000 A 
ATOM     14  C   UNL     1     -60.924 -57.087 -49.479  0.00  0.00    +0.000 A 
ATOM     15  C   UNL     1     -60.057 -58.172 -49.534  0.00  0.00    +0.000 A 
ATOM     16  C   UNL     1     -58.867 -58.047 -50.246  0.00  0.00    +0.000 A 
BRANCH  14  17
ATOM     17  S   UNL     1     -62.446 -57.256 -48.639  0.00  0.00    +0.000 S 
ATOM     18  O   UNL     1     -63.421 -57.840 -49.531  0.00  0.00    +0.000 OA
ATOM     19  O   UNL     1     -62.209 -57.778 -47.315  0.00  0.00    +0.000 OA
BRANCH  17  20
ATOM     20  N   UNL     1     -62.922 -55.659 -48.433  0.00  0.00    +0.000 NA
ATOM     21  H   UNL     1     -63.894 -55.626 -48.125  0.00  0.00    +0.000 HD
ATOM     22  H   UNL     1     -62.274 -55.187 -47.800  0.00  0.00    +0.000 HD
ENDBRANCH  17  20
ENDBRANCH  14  17
ENDBRANCH   9  11
BRANCH   1  23
ATOM     23  C   UNL     1     -57.758 -57.017 -56.360  0.00  0.00    +0.000 C 
ATOM     24  S   UNL     1     -57.427 -58.247 -57.465  0.00  0.00    +0.000 S 
BRANCH  23  25
ATOM     25  N   UNL     1     -58.730 -56.022 -56.520  0.00  0.00    +0.000 N 
ATOM     26  H   UNL     1     -58.624 -55.192 -55.927  0.00  0.00    +0.000 HD
BRANCH  25  27
ATOM     27  C   UNL     1     -59.981 -56.077 -57.191  0.00  0.00    +0.000 A 
ATOM     28  C   UNL     1     -61.116 -56.314 -56.408  0.00  0.00    +0.000 A 
ATOM     29  F   UNL     1     -60.974 -56.490 -55.084  0.00  0.00    +0.000 F 
ATOM     30  C   UNL     1     -62.391 -56.381 -56.962  0.00  0.00    +0.000 A 
ATOM     31  C   UNL     1     -62.552 -56.184 -58.329  0.00  0.00    +0.000 A 
ATOM     32  C   UNL     1     -61.448 -55.881 -59.120  0.00  0.00    +0.000 A 
ATOM     33  C   UNL     1     -60.176 -55.821 -58.551  0.00  0.00    +0.000 A 
ATOM     34  F   UNL     1     -59.178 -55.351 -59.314  0.00  0.00    +0.000 F 
ENDBRANCH  25  27
ENDBRANCH  23  25
ENDBRANCH   1  23
TORSDOF 6
ENDMDL
MODEL 6
REMARK VINA RESULT:      -5.6     31.875     35.230
REMARK  Name = Cdk12_Inhibitor.pdbqt.pdb
REMARK  6 active torsions:
REMARK  status: ('A' for Active; 'I' for Inactive)
REMARK    1  A    between atoms: N_1  and  C_23
REMARK    2  A    between atoms: N_9  and  C_11
REMARK    3  A    between atoms: C_14  and  S_17
REMARK    4  A    between atoms: S_17  and  N_20
REMARK    5  A    between atoms: C_23  and  N_25
REMARK    6  A    between atoms: N_25  and  C_27
REMARK                            x       y       z     vdW  Elec       q    Type
REMARK                         _______ _______ _______ _____ _____    ______ ____
ROOT
ATOM      1  N   UNL     1     -69.184 -59.465 -71.433  0.00  0.00    +0.000 N 
ATOM      2  N   UNL     1     -68.142 -60.336 -71.441  0.00  0.00    +0.000 NA
ATOM      3  N   UNL     1     -67.791 -58.702 -72.975  0.00  0.00    +0.000 NA
ATOM      4  N   UNL     1     -69.841 -57.539 -72.791  0.00  0.00    +0.000 N 
ATOM      5  C   UNL     1     -67.321 -59.820 -72.351  0.00  0.00    +0.000 A 
ATOM      6  C   UNL     1     -68.966 -58.512 -72.432  0.00  0.00    +0.000 A 
ATOM      7  H   UNL     1     -70.807 -57.831 -72.945  0.00  0.00    +0.000 HD
ATOM      8  H   UNL     1     -69.523 -57.011 -73.605  0.00  0.00    +0.000 HD
ATOM      9  N   UNL     1     -66.112 -60.259 -72.743  0.00  0.00    +0.000 N 
ATOM     10  H   UNL     1     -65.659 -59.704 -73.457  0.00  0.00    +0.000 HD
ENDROOT
BRANCH   9  11
ATOM     11  C   UNL     1     -65.357 -61.358 -72.298  0.00  0.00    +0.000 A 
ATOM     12  C   UNL     1     -65.335 -62.527 -73.071  0.00  0.00    +0.000 A 
ATOM     13  C   UNL     1     -64.614 -63.647 -72.666  0.00  0.00    +0.000 A 
ATOM     14  C   UNL     1     -63.919 -63.603 -71.465  0.00  0.00    +0.000 A 
ATOM     15  C   UNL     1     -63.902 -62.455 -70.683  0.00  0.00    +0.000 A 
ATOM     16  C   UNL     1     -64.630 -61.344 -71.101  0.00  0.00    +0.000 A 
BRANCH  14  17
ATOM     17  S   UNL     1     -62.959 -64.979 -70.977  0.00  0.00    +0.000 S 
ATOM     18  O   UNL     1     -63.610 -65.649 -69.875  0.00  0.00    +0.000 OA
ATOM     19  O   UNL     1     -62.510 -65.691 -72.149  0.00  0.00    +0.000 OA
BRANCH  17  20
ATOM     20  N   UNL     1     -61.595 -64.251 -70.322  0.00  0.00    +0.000 NA
ATOM     21  H   UNL     1     -61.815 -63.293 -70.047  0.00  0.00    +0.000 HD
ATOM     22  H   UNL     1     -61.232 -64.825 -69.561  0.00  0.00    +0.000 HD
ENDBRANCH  17  20
ENDBRANCH  14  17
ENDBRANCH   9  11
BRANCH   1  23
ATOM     23  C   UNL     1     -70.246 -59.608 -70.492  0.00  0.00    +0.000 C 
ATOM     24  S   UNL     1     -71.577 -60.625 -70.690  0.00  0.00    +0.000 S 
BRANCH  23  25
ATOM     25  N   UNL     1     -69.945 -58.882 -69.333  0.00  0.00    +0.000 N 
ATOM     26  H   UNL     1     -69.551 -57.947 -69.481  0.00  0.00    +0.000 HD
BRANCH  25  27
ATOM     27  C   UNL     1     -69.862 -59.321 -67.985  0.00  0.00    +0.000 A 
ATOM     28  C   UNL     1     -70.957 -59.049 -67.156  0.00  0.00    +0.000 A 
ATOM     29  F   UNL     1     -72.010 -58.385 -67.658  0.00  0.00    +0.000 F 
ATOM     30  C   UNL     1     -70.984 -59.441 -65.821  0.00  0.00    +0.000 A 
ATOM     31  C   UNL     1     -69.906 -60.144 -65.294  0.00  0.00    +0.000 A 
ATOM     32  C   UNL     1     -68.834 -60.486 -66.113  0.00  0.00    +0.000 A 
ATOM     33  C   UNL     1     -68.820 -60.083 -67.450  0.00  0.00    +0.000 A 
ATOM     34  F   UNL     1     -67.860 -60.587 -68.238  0.00  0.00    +0.000 F 
ENDBRANCH  25  27
ENDBRANCH  23  25
ENDBRANCH   1  23
TORSDOF 6
ENDMDL
MODEL 7
REMARK VINA RESULT:      -5.6      5.385     10.174
REMARK  Name = Cdk12_Inhibitor.pdbqt.pdb
REMARK  6 active torsions:
REMARK  status: ('A' for Active; 'I' for Inactive)
REMARK    1  A    between atoms: N_1  and  C_23
REMARK    2  A    between atoms: N_9  and  C_11
REMARK    3  A    between atoms: C_14  and  S_17
REMARK    4  A    between atoms: S_17  and  N_20
REMARK    5  A    between atoms: C_23  and  N_25
REMARK    6  A    between atoms: N_25  and  C_27
REMARK                            x       y       z     vdW  Elec       q    Type
REMARK                         _______ _______ _______ _____ _____    ______ ____
ROOT
ATOM      1  N   UNL     1     -72.488 -55.341 -30.431  0.00  0.00    +0.000 N 
ATOM      2  N   UNL     1     -71.695 -56.099 -31.232  0.00  0.00    +0.000 NA
ATOM      3  N   UNL     1     -70.491 -54.390 -30.351  0.00  0.00    +0.000 NA
ATOM      4  N   UNL     1     -72.211 -53.238 -29.212  0.00  0.00    +0.000 N 
ATOM      5  C   UNL     1     -70.506 -55.513 -31.126  0.00  0.00    +0.000 A 
ATOM      6  C   UNL     1     -71.732 -54.264 -29.960  0.00  0.00    +0.000 A 
ATOM      7  H   UNL     1     -73.073 -52.801 -29.540  0.00  0.00    +0.000 HD
ATOM      8  H   UNL     1     -71.512 -52.512 -29.054  0.00  0.00    +0.000 HD
ATOM      9  N   UNL     1     -69.337 -55.869 -31.685  0.00  0.00    +0.000 N 
ATOM     10  H   UNL     1     -68.549 -55.272 -31.464  0.00  0.00    +0.000 HD
ENDROOT
BRANCH   9  11
ATOM     11  C   UNL     1     -69.021 -56.960 -32.514  0.00  0.00    +0.000 A 
ATOM     12  C   UNL     1     -69.625 -57.055 -33.775  0.00  0.00    +0.000 A 
ATOM     13  C   UNL     1     -69.356 -58.123 -34.626  0.00  0.00    +0.000 A 
ATOM     14  C   UNL     1     -68.484 -59.118 -34.204  0.00  0.00    +0.000 A 
ATOM     15  C   UNL     1     -67.852 -59.046 -32.969  0.00  0.00    +0.000 A 
ATOM     16  C   UNL     1     -68.133 -57.973 -32.129  0.00  0.00    +0.000 A 
BRANCH  14  17
ATOM     17  S   UNL     1     -68.090 -60.430 -35.288  0.00  0.00    +0.000 S 
ATOM     18  O   UNL     1     -67.328 -61.427 -34.572  0.00  0.00    +0.000 OA
ATOM     19  O   UNL     1     -69.251 -60.770 -36.073  0.00  0.00    +0.000 OA
BRANCH  17  20
ATOM     20  N   UNL     1     -67.005 -59.706 -36.347  0.00  0.00    +0.000 NA
ATOM     21  H   UNL     1     -66.240 -60.350 -36.548  0.00  0.00    +0.000 HD
ATOM     22  H   UNL     1     -67.501 -59.383 -37.178  0.00  0.00    +0.000 HD
ENDBRANCH  17  20
ENDBRANCH  14  17
ENDBRANCH   9  11
BRANCH   1  23
ATOM     23  C   UNL     1     -73.842 -55.714 -30.184  0.00  0.00    +0.000 C 
ATOM     24  S   UNL     1     -75.189 -54.938 -30.839  0.00  0.00    +0.000 S 
BRANCH  23  25
ATOM     25  N   UNL     1     -73.872 -56.893 -29.429  0.00  0.00    +0.000 N 
ATOM     26  H   UNL     1     -74.549 -57.601 -29.732  0.00  0.00    +0.000 HD
BRANCH  25  27
ATOM     27  C   UNL     1     -73.295 -57.172 -28.162  0.00  0.00    +0.000 A 
ATOM     28  C   UNL     1     -74.062 -56.871 -27.030  0.00  0.00    +0.000 A 
ATOM     29  F   UNL     1     -75.280 -56.329 -27.189  0.00  0.00    +0.000 F 
ATOM     30  C   UNL     1     -73.596 -57.111 -25.741  0.00  0.00    +0.000 A 
ATOM     31  C   UNL     1     -72.343 -57.688 -25.564  0.00  0.00    +0.000 A 
ATOM     32  C   UNL     1     -71.588 -58.058 -26.673  0.00  0.00    +0.000 A 
ATOM     33  C   UNL     1     -72.067 -57.808 -27.960  0.00  0.00    +0.000 A 
ATOM     34  F   UNL     1     -71.391 -58.343 -28.986  0.00  0.00    +0.000 F 
ENDBRANCH  25  27
ENDBRANCH  23  25
ENDBRANCH   1  23
TORSDOF 6
ENDMDL
MODEL 8
REMARK VINA RESULT:      -5.6     12.129     14.676
REMARK  Name = Cdk12_Inhibitor.pdbqt.pdb
REMARK  6 active torsions:
REMARK  status: ('A' for Active; 'I' for Inactive)
REMARK    1  A    between atoms: N_1  and  C_23
REMARK    2  A    between atoms: N_9  and  C_11
REMARK    3  A    between atoms: C_14  and  S_17
REMARK    4  A    between atoms: S_17  and  N_20
REMARK    5  A    between atoms: C_23  and  N_25
REMARK    6  A    between atoms: N_25  and  C_27
REMARK                            x       y       z     vdW  Elec       q    Type
REMARK                         _______ _______ _______ _____ _____    ______ ____
ROOT
ATOM      1  N   UNL     1     -61.101 -53.940 -24.151  0.00  0.00    +0.000 N 
ATOM      2  N   UNL     1     -60.541 -54.511 -25.250  0.00  0.00    +0.000 NA
ATOM      3  N   UNL     1     -60.822 -56.073 -23.630  0.00  0.00    +0.000 NA
ATOM      4  N   UNL     1     -61.615 -54.694 -21.881  0.00  0.00    +0.000 N 
ATOM      5  C   UNL     1     -60.426 -55.790 -24.904  0.00  0.00    +0.000 A 
ATOM      6  C   UNL     1     -61.198 -54.915 -23.154  0.00  0.00    +0.000 A 
ATOM      7  H   UNL     1     -61.197 -53.898 -21.398  0.00  0.00    +0.000 HD
ATOM      8  H   UNL     1     -61.521 -55.523 -21.292  0.00  0.00    +0.000 HD
ATOM      9  N   UNL     1     -59.962 -56.822 -25.629  0.00  0.00    +0.000 N 
ATOM     10  H   UNL     1     -59.966 -57.719 -25.161  0.00  0.00    +0.000 HD
ENDROOT
BRANCH   9  11
ATOM     11  C   UNL     1     -59.494 -56.864 -26.954  0.00  0.00    +0.000 A 
ATOM     12  C   UNL     1     -58.176 -56.469 -27.223  0.00  0.00    +0.000 A 
ATOM     13  C   UNL     1     -57.670 -56.478 -28.520  0.00  0.00    +0.000 A 
ATOM     14  C   UNL     1     -58.498 -56.871 -29.563  0.00  0.00    +0.000 A 
ATOM     15  C   UNL     1     -59.802 -57.288 -29.331  0.00  0.00    +0.000 A 
ATOM     16  C   UNL     1     -60.293 -57.271 -28.029  0.00  0.00    +0.000 A 
BRANCH  14  17
ATOM     17  S   UNL     1     -57.855 -56.949 -31.186  0.00  0.00    +0.000 S 
ATOM     18  O   UNL     1     -56.660 -56.140 -31.265  0.00  0.00    +0.000 OA
ATOM     19  O   UNL     1     -57.890 -58.314 -31.652  0.00  0.00    +0.000 OA
BRANCH  17  20
ATOM     20  N   UNL     1     -59.019 -56.123 -32.072  0.00  0.00    +0.000 NA
ATOM     21  H   UNL     1     -58.690 -55.179 -32.276  0.00  0.00    +0.000 HD
ATOM     22  H   UNL     1     -59.263 -56.662 -32.904  0.00  0.00    +0.000 HD
ENDBRANCH  17  20
ENDBRANCH  14  17
ENDBRANCH   9  11
BRANCH   1  23
ATOM     23  C   UNL     1     -61.494 -52.570 -24.163  0.00  0.00    +0.000 C 
ATOM     24  S   UNL     1     -61.287 -51.498 -22.876  0.00  0.00    +0.000 S 
BRANCH  23  25
ATOM     25  N   UNL     1     -61.949 -52.224 -25.441  0.00  0.00    +0.000 N 
ATOM     26  H   UNL     1     -62.449 -52.960 -25.952  0.00  0.00    +0.000 HD
BRANCH  25  27
ATOM     27  C   UNL     1     -61.619 -51.103 -26.248  0.00  0.00    +0.000 A 
ATOM     28  C   UNL     1     -60.259 -50.849 -26.461  0.00  0.00    +0.000 A 
ATOM     29  F   UNL     1     -59.344 -51.650 -25.891  0.00  0.00    +0.000 F 
ATOM     30  C   UNL     1     -59.824 -49.781 -27.241  0.00  0.00    +0.000 A 
ATOM     31  C   UNL     1     -60.762 -48.954 -27.849  0.00  0.00    +0.000 A 
ATOM     32  C   UNL     1     -62.119 -49.224 -27.708  0.00  0.00    +0.000 A 
ATOM     33  C   UNL     1     -62.540 -50.296 -26.920  0.00  0.00    +0.000 A 
ATOM     34  F   UNL     1     -63.840 -50.623 -26.962  0.00  0.00    +0.000 F 
ENDBRANCH  25  27
ENDBRANCH  23  25
ENDBRANCH   1  23
TORSDOF 6
ENDMDL
MODEL 9
REMARK VINA RESULT:      -5.6     20.338     25.085
REMARK  Name = Cdk12_Inhibitor.pdbqt.pdb
REMARK  6 active torsions:
REMARK  status: ('A' for Active; 'I' for Inactive)
REMARK    1  A    between atoms: N_1  and  C_23
REMARK    2  A    between atoms: N_9  and  C_11
REMARK    3  A    between atoms: C_14  and  S_17
REMARK    4  A    between atoms: S_17  and  N_20
REMARK    5  A    between atoms: C_23  and  N_25
REMARK    6  A    between atoms: N_25  and  C_27
REMARK                            x       y       z     vdW  Elec       q    Type
REMARK                         _______ _______ _______ _____ _____    ______ ____
ROOT
ATOM      1  N   UNL     1     -65.110 -47.019 -55.297  0.00  0.00    +0.000 N 
ATOM      2  N   UNL     1     -64.318 -46.534 -56.289  0.00  0.00    +0.000 NA
ATOM      3  N   UNL     1     -66.130 -47.564 -57.185  0.00  0.00    +0.000 NA
ATOM      4  N   UNL     1     -67.123 -48.406 -55.212  0.00  0.00    +0.000 N 
ATOM      5  C   UNL     1     -64.985 -46.853 -57.395  0.00  0.00    +0.000 A 
ATOM      6  C   UNL     1     -66.178 -47.702 -55.885  0.00  0.00    +0.000 A 
ATOM      7  H   UNL     1     -66.784 -49.057 -54.502  0.00  0.00    +0.000 HD
ATOM      8  H   UNL     1     -67.757 -48.903 -55.838  0.00  0.00    +0.000 HD
ATOM      9  N   UNL     1     -64.675 -46.583 -58.674  0.00  0.00    +0.000 N 
ATOM     10  H   UNL     1     -65.334 -46.924 -59.363  0.00  0.00    +0.000 HD
ENDROOT
BRANCH   9  11
ATOM     11  C   UNL     1     -63.588 -45.875 -59.216  0.00  0.00    +0.000 A 
ATOM     12  C   UNL     1     -63.560 -44.479 -59.101  0.00  0.00    +0.000 A 
ATOM     13  C   UNL     1     -62.513 -43.731 -59.634  0.00  0.00    +0.000 A 
ATOM     14  C   UNL     1     -61.490 -44.388 -60.305  0.00  0.00    +0.000 A 
ATOM     15  C   UNL     1     -61.475 -45.772 -60.422  0.00  0.00    +0.000 A 
ATOM     16  C   UNL     1     -62.531 -46.504 -59.885  0.00  0.00    +0.000 A 
BRANCH  14  17
ATOM     17  S   UNL     1     -60.139 -43.467 -60.922  0.00  0.00    +0.000 S 
ATOM     18  O   UNL     1     -59.340 -42.994 -59.816  0.00  0.00    +0.000 OA
ATOM     19  O   UNL     1     -59.559 -44.160 -62.047  0.00  0.00    +0.000 OA
BRANCH  17  20
ATOM     20  N   UNL     1     -60.892 -42.104 -61.552  0.00  0.00    +0.000 NA
ATOM     21  H   UNL     1     -61.622 -42.386 -62.207  0.00  0.00    +0.000 HD
ATOM     22  H   UNL     1     -61.228 -41.515 -60.789  0.00  0.00    +0.000 HD
ENDBRANCH  17  20
ENDBRANCH  14  17
ENDBRANCH   9  11
BRANCH   1  23
ATOM     23  C   UNL     1     -64.792 -46.778 -53.928  0.00  0.00    +0.000 C 
ATOM     24  S   UNL     1     -65.274 -45.418 -53.054  0.00  0.00    +0.000 S 
BRANCH  23  25
ATOM     25  N   UNL     1     -64.141 -47.896 -53.395  0.00  0.00    +0.000 N 
ATOM     26  H   UNL     1     -63.116 -47.860 -53.395  0.00  0.00    +0.000 HD
BRANCH  25  27
ATOM     27  C   UNL     1     -64.658 -49.181 -53.080  0.00  0.00    +0.000 A 
ATOM     28  C   UNL     1     -64.118 -50.273 -53.768  0.00  0.00    +0.000 A 
ATOM     29  F   UNL     1     -63.164 -50.062 -54.689  0.00  0.00    +0.000 F 
ATOM     30  C   UNL     1     -64.547 -51.576 -53.532  0.00  0.00    +0.000 A 
ATOM     31  C   UNL     1     -65.523 -51.810 -52.570  0.00  0.00    +0.000 A 
ATOM     32  C   UNL     1     -66.029 -50.749 -51.824  0.00  0.00    +0.000 A 
ATOM     33  C   UNL     1     -65.591 -49.448 -52.075  0.00  0.00    +0.000 A 
ATOM     34  F   UNL     1     -65.971 -48.492 -51.215  0.00  0.00    +0.000 F 
ENDBRANCH  25  27
ENDBRANCH  23  25
ENDBRANCH   1  23
TORSDOF 6
ENDMDL
