MODEL 1
REMARK VINA RESULT:      -6.3      0.000      0.000
REMARK  Name = CHEMBL35349.pdbqt.pdb
REMARK  2 active torsions:
REMARK  status: ('A' for Active; 'I' for Inactive)
REMARK    1  A    between atoms: C_2  and  C_11
REMARK    2  A    between atoms: C_5  and  O_21
REMARK                            x       y       z     vdW  Elec       q    Type
REMARK                         _______ _______ _______ _____ _____    ______ ____
ROOT
ATOM      1  N   UNL     1     -67.469 -58.360 -39.902  0.00  0.00    +0.000 N 
ATOM      2  C   UNL     1     -67.917 -57.515 -37.884  0.00  0.00    +0.000 A 
ATOM      3  C   UNL     1     -67.588 -56.444 -38.785  0.00  0.00    +0.000 A 
ATOM      4  C   UNL     1     -67.314 -57.004 -40.031  0.00  0.00    +0.000 A 
ATOM      5  C   UNL     1     -67.830 -58.687 -38.622  0.00  0.00    +0.000 A 
ATOM      6  C   UNL     1     -67.498 -55.044 -38.652  0.00  0.00    +0.000 A 
ATOM      7  C   UNL     1     -66.956 -56.247 -41.151  0.00  0.00    +0.000 A 
ATOM      8  C   UNL     1     -67.142 -54.267 -39.757  0.00  0.00    +0.000 A 
ATOM      9  C   UNL     1     -66.876 -54.864 -40.984  0.00  0.00    +0.000 A 
ATOM     10  H   UNL     1     -67.338 -59.037 -40.639  0.00  0.00    +0.000 HD
ENDROOT
BRANCH   2  11
ATOM     11  C   UNL     1     -68.269 -57.396 -36.487  0.00  0.00    +0.000 C 
ATOM     12  N   UNL     1     -69.323 -56.733 -36.083  0.00  0.00    +0.000 NA
ATOM     13  C   UNL     1     -69.342 -56.834 -34.678  0.00  0.00    +0.000 A 
ATOM     14  C   UNL     1     -68.286 -57.573 -34.149  0.00  0.00    +0.000 A 
ATOM     15  C   UNL     1     -70.280 -56.284 -33.825  0.00  0.00    +0.000 A 
ATOM     16  C   UNL     1     -67.514 -57.989 -35.302  0.00  0.00    +0.000 C 
ATOM     17  C   UNL     1     -68.100 -57.805 -32.804  0.00  0.00    +0.000 A 
ATOM     18  O   UNL     1     -66.504 -58.652 -35.349  0.00  0.00    +0.000 OA
ATOM     19  C   UNL     1     -69.048 -57.247 -31.948  0.00  0.00    +0.000 A 
ATOM     20  C   UNL     1     -70.125 -56.496 -32.451  0.00  0.00    +0.000 A 
ENDBRANCH   2  11
BRANCH   5  21
ATOM     21  O   UNL     1     -68.016 -59.973 -38.347  0.00  0.00    +0.000 OA
ATOM     22  H   UNL     1     -67.163 -60.392 -38.090  0.00  0.00    +0.000 HD
ENDBRANCH   5  21
TORSDOF 2
ENDMDL
MODEL 2
REMARK VINA RESULT:      -6.1      3.524      8.309
REMARK  Name = CHEMBL35349.pdbqt.pdb
REMARK  2 active torsions:
REMARK  status: ('A' for Active; 'I' for Inactive)
REMARK    1  A    between atoms: C_2  and  C_11
REMARK    2  A    between atoms: C_5  and  O_21
REMARK                            x       y       z     vdW  Elec       q    Type
REMARK                         _______ _______ _______ _____ _____    ______ ____
ROOT
ATOM      1  N   UNL     1     -70.646 -55.547 -28.967  0.00  0.00    +0.000 N 
ATOM      2  C   UNL     1     -70.263 -56.485 -30.957  0.00  0.00    +0.000 A 
ATOM      3  C   UNL     1     -70.994 -57.407 -30.131  0.00  0.00    +0.000 A 
ATOM      4  C   UNL     1     -71.216 -56.792 -28.900  0.00  0.00    +0.000 A 
ATOM      5  C   UNL     1     -70.069 -55.343 -30.192  0.00  0.00    +0.000 A 
ATOM      6  C   UNL     1     -71.489 -58.713 -30.319  0.00  0.00    +0.000 A 
ATOM      7  C   UNL     1     -71.902 -57.407 -27.848  0.00  0.00    +0.000 A 
ATOM      8  C   UNL     1     -72.178 -59.346 -29.283  0.00  0.00    +0.000 A 
ATOM      9  C   UNL     1     -72.379 -58.700 -28.069  0.00  0.00    +0.000 A 
ATOM     10  H   UNL     1     -70.644 -54.864 -28.224  0.00  0.00    +0.000 HD
ENDROOT
BRANCH   2  11
ATOM     11  C   UNL     1     -69.818 -56.703 -32.315  0.00  0.00    +0.000 C 
ATOM     12  N   UNL     1     -70.494 -56.280 -33.352  0.00  0.00    +0.000 NA
ATOM     13  C   UNL     1     -69.763 -56.671 -34.491  0.00  0.00    +0.000 A 
ATOM     14  C   UNL     1     -68.589 -57.361 -34.200  0.00  0.00    +0.000 A 
ATOM     15  C   UNL     1     -70.103 -56.435 -35.810  0.00  0.00    +0.000 A 
ATOM     16  C   UNL     1     -68.548 -57.427 -32.754  0.00  0.00    +0.000 C 
ATOM     17  C   UNL     1     -67.715 -57.840 -35.152  0.00  0.00    +0.000 A 
ATOM     18  O   UNL     1     -67.719 -57.930 -32.032  0.00  0.00    +0.000 OA
ATOM     19  C   UNL     1     -68.062 -57.600 -36.480  0.00  0.00    +0.000 A 
ATOM     20  C   UNL     1     -69.241 -56.906 -36.806  0.00  0.00    +0.000 A 
ENDBRANCH   2  11
BRANCH   5  21
ATOM     21  O   UNL     1     -69.476 -54.174 -30.404  0.00  0.00    +0.000 OA
ATOM     22  H   UNL     1     -69.565 -53.600 -29.609  0.00  0.00    +0.000 HD
ENDBRANCH   5  21
TORSDOF 2
ENDMDL
MODEL 3
REMARK VINA RESULT:      -5.9      7.186     10.299
REMARK  Name = CHEMBL35349.pdbqt.pdb
REMARK  2 active torsions:
REMARK  status: ('A' for Active; 'I' for Inactive)
REMARK    1  A    between atoms: C_2  and  C_11
REMARK    2  A    between atoms: C_5  and  O_21
REMARK                            x       y       z     vdW  Elec       q    Type
REMARK                         _______ _______ _______ _____ _____    ______ ____
ROOT
ATOM      1  N   UNL     1     -71.560 -58.642 -30.446  0.00  0.00    +0.000 N 
ATOM      2  C   UNL     1     -71.882 -57.825 -28.393  0.00  0.00    +0.000 A 
ATOM      3  C   UNL     1     -71.206 -56.841 -29.196  0.00  0.00    +0.000 A 
ATOM      4  C   UNL     1     -71.021 -57.382 -30.466  0.00  0.00    +0.000 A 
ATOM      5  C   UNL     1     -72.081 -58.927 -29.212  0.00  0.00    +0.000 A 
ATOM      6  C   UNL     1     -70.732 -55.536 -28.954  0.00  0.00    +0.000 A 
ATOM      7  C   UNL     1     -70.391 -56.694 -31.509  0.00  0.00    +0.000 A 
ATOM      8  C   UNL     1     -70.101 -54.830 -29.980  0.00  0.00    +0.000 A 
ATOM      9  C   UNL     1     -69.935 -55.404 -31.235  0.00  0.00    +0.000 A 
ATOM     10  H   UNL     1     -71.578 -59.283 -31.226  0.00  0.00    +0.000 HD
ENDROOT
BRANCH   2  11
ATOM     11  C   UNL     1     -72.275 -57.691 -27.009  0.00  0.00    +0.000 C 
ATOM     12  N   UNL     1     -73.123 -56.781 -26.605  0.00  0.00    +0.000 NA
ATOM     13  C   UNL     1     -73.261 -56.954 -25.213  0.00  0.00    +0.000 A 
ATOM     14  C   UNL     1     -72.493 -57.993 -24.694  0.00  0.00    +0.000 A 
ATOM     15  C   UNL     1     -74.060 -56.210 -24.365  0.00  0.00    +0.000 A 
ATOM     16  C   UNL     1     -71.796 -58.545 -25.838  0.00  0.00    +0.000 C 
ATOM     17  C   UNL     1     -72.467 -58.348 -23.363  0.00  0.00    +0.000 A 
ATOM     18  O   UNL     1     -71.013 -59.464 -25.889  0.00  0.00    +0.000 OA
ATOM     19  C   UNL     1     -73.273 -57.594 -22.512  0.00  0.00    +0.000 A 
ATOM     20  C   UNL     1     -74.060 -56.539 -23.005  0.00  0.00    +0.000 A 
ENDBRANCH   2  11
BRANCH   5  21
ATOM     21  O   UNL     1     -72.640 -60.119 -29.043  0.00  0.00    +0.000 OA
ATOM     22  H   UNL     1     -72.007 -60.732 -28.606  0.00  0.00    +0.000 HD
ENDBRANCH   5  21
TORSDOF 2
ENDMDL
MODEL 4
REMARK VINA RESULT:      -5.9     20.454     22.336
REMARK  Name = CHEMBL35349.pdbqt.pdb
REMARK  2 active torsions:
REMARK  status: ('A' for Active; 'I' for Inactive)
REMARK    1  A    between atoms: C_2  and  C_11
REMARK    2  A    between atoms: C_5  and  O_21
REMARK                            x       y       z     vdW  Elec       q    Type
REMARK                         _______ _______ _______ _____ _____    ______ ____
ROOT
ATOM      1  N   UNL     1     -62.378 -56.029 -17.130  0.00  0.00    +0.000 N 
ATOM      2  C   UNL     1     -63.681 -57.139 -15.696  0.00  0.00    +0.000 A 
ATOM      3  C   UNL     1     -64.304 -55.887 -16.033  0.00  0.00    +0.000 A 
ATOM      4  C   UNL     1     -63.466 -55.221 -16.926  0.00  0.00    +0.000 A 
ATOM      5  C   UNL     1     -62.486 -57.183 -16.401  0.00  0.00    +0.000 A 
ATOM      6  C   UNL     1     -65.507 -55.258 -15.657  0.00  0.00    +0.000 A 
ATOM      7  C   UNL     1     -63.763 -53.965 -17.465  0.00  0.00    +0.000 A 
ATOM      8  C   UNL     1     -65.825 -54.004 -16.182  0.00  0.00    +0.000 A 
ATOM      9  C   UNL     1     -64.963 -53.372 -17.071  0.00  0.00    +0.000 A 
ATOM     10  H   UNL     1     -61.595 -55.815 -17.731  0.00  0.00    +0.000 HD
ENDROOT
BRANCH   2  11
ATOM     11  C   UNL     1     -64.196 -58.150 -14.801  0.00  0.00    +0.000 C 
ATOM     12  N   UNL     1     -64.258 -57.976 -13.506  0.00  0.00    +0.000 NA
ATOM     13  C   UNL     1     -64.807 -59.158 -12.971  0.00  0.00    +0.000 A 
ATOM     14  C   UNL     1     -65.112 -60.124 -13.926  0.00  0.00    +0.000 A 
ATOM     15  C   UNL     1     -65.056 -59.420 -11.636  0.00  0.00    +0.000 A 
ATOM     16  C   UNL     1     -64.730 -59.525 -15.190  0.00  0.00    +0.000 C 
ATOM     17  C   UNL     1     -65.656 -61.356 -13.638  0.00  0.00    +0.000 A 
ATOM     18  O   UNL     1     -64.804 -59.981 -16.307  0.00  0.00    +0.000 OA
ATOM     19  C   UNL     1     -65.905 -61.615 -12.291  0.00  0.00    +0.000 A 
ATOM     20  C   UNL     1     -65.609 -60.661 -11.302  0.00  0.00    +0.000 A 
ENDBRANCH   2  11
BRANCH   5  21
ATOM     21  O   UNL     1     -61.499 -58.065 -16.500  0.00  0.00    +0.000 OA
ATOM     22  H   UNL     1     -61.626 -58.790 -15.845  0.00  0.00    +0.000 HD
ENDBRANCH   5  21
TORSDOF 2
ENDMDL
MODEL 5
REMARK VINA RESULT:      -5.9     15.118     18.536
REMARK  Name = CHEMBL35349.pdbqt.pdb
REMARK  2 active torsions:
REMARK  status: ('A' for Active; 'I' for Inactive)
REMARK    1  A    between atoms: C_2  and  C_11
REMARK    2  A    between atoms: C_5  and  O_21
REMARK                            x       y       z     vdW  Elec       q    Type
REMARK                         _______ _______ _______ _____ _____    ______ ____
ROOT
ATOM      1  N   UNL     1     -62.679 -55.043 -17.400  0.00  0.00    +0.000 N 
ATOM      2  C   UNL     1     -62.647 -54.317 -19.512  0.00  0.00    +0.000 A 
ATOM      3  C   UNL     1     -63.856 -53.870 -18.874  0.00  0.00    +0.000 A 
ATOM      4  C   UNL     1     -63.844 -54.339 -17.562  0.00  0.00    +0.000 A 
ATOM      5  C   UNL     1     -61.947 -55.042 -18.558  0.00  0.00    +0.000 A 
ATOM      6  C   UNL     1     -64.962 -53.107 -19.296  0.00  0.00    +0.000 A 
ATOM      7  C   UNL     1     -64.873 -54.090 -16.649  0.00  0.00    +0.000 A 
ATOM      8  C   UNL     1     -66.002 -52.844 -18.401  0.00  0.00    +0.000 A 
ATOM      9  C   UNL     1     -65.953 -53.330 -17.100  0.00  0.00    +0.000 A 
ATOM     10  H   UNL     1     -62.387 -55.504 -16.551  0.00  0.00    +0.000 HD
ENDROOT
BRANCH   2  11
ATOM     11  C   UNL     1     -62.241 -54.062 -20.875  0.00  0.00    +0.000 C 
ATOM     12  N   UNL     1     -61.876 -55.019 -21.690  0.00  0.00    +0.000 NA
ATOM     13  C   UNL     1     -61.555 -54.399 -22.914  0.00  0.00    +0.000 A 
ATOM     14  C   UNL     1     -61.710 -53.015 -22.906  0.00  0.00    +0.000 A 
ATOM     15  C   UNL     1     -61.120 -55.027 -24.066  0.00  0.00    +0.000 A 
ATOM     16  C   UNL     1     -62.170 -52.704 -21.568  0.00  0.00    +0.000 C 
ATOM     17  C   UNL     1     -61.456 -52.200 -23.987  0.00  0.00    +0.000 A 
ATOM     18  O   UNL     1     -62.443 -51.632 -21.080  0.00  0.00    +0.000 OA
ATOM     19  C   UNL     1     -61.017 -52.837 -25.145  0.00  0.00    +0.000 A 
ATOM     20  C   UNL     1     -60.850 -54.232 -25.186  0.00  0.00    +0.000 A 
ENDBRANCH   2  11
BRANCH   5  21
ATOM     21  O   UNL     1     -60.787 -55.689 -18.551  0.00  0.00    +0.000 OA
ATOM     22  H   UNL     1     -60.901 -56.585 -18.161  0.00  0.00    +0.000 HD
ENDBRANCH   5  21
TORSDOF 2
ENDMDL
MODEL 6
REMARK VINA RESULT:      -5.8     22.336     24.952
REMARK  Name = CHEMBL35349.pdbqt.pdb
REMARK  2 active torsions:
REMARK  status: ('A' for Active; 'I' for Inactive)
REMARK    1  A    between atoms: C_2  and  C_11
REMARK    2  A    between atoms: C_5  and  O_21
REMARK                            x       y       z     vdW  Elec       q    Type
REMARK                         _______ _______ _______ _____ _____    ______ ____
ROOT
ATOM      1  N   UNL     1     -68.641 -48.140 -57.159  0.00  0.00    +0.000 N 
ATOM      2  C   UNL     1     -66.862 -47.480 -58.336  0.00  0.00    +0.000 A 
ATOM      3  C   UNL     1     -68.056 -47.211 -59.090  0.00  0.00    +0.000 A 
ATOM      4  C   UNL     1     -69.144 -47.634 -58.329  0.00  0.00    +0.000 A 
ATOM      5  C   UNL     1     -67.275 -48.057 -57.143  0.00  0.00    +0.000 A 
ATOM      6  C   UNL     1     -68.310 -46.645 -60.355  0.00  0.00    +0.000 A 
ATOM      7  C   UNL     1     -70.471 -47.523 -58.760  0.00  0.00    +0.000 A 
ATOM      8  C   UNL     1     -69.626 -46.524 -60.806  0.00  0.00    +0.000 A 
ATOM      9  C   UNL     1     -70.686 -46.957 -60.017  0.00  0.00    +0.000 A 
ATOM     10  H   UNL     1     -69.190 -48.524 -56.404  0.00  0.00    +0.000 HD
ENDROOT
BRANCH   2  11
ATOM     11  C   UNL     1     -65.502 -47.204 -58.739  0.00  0.00    +0.000 C 
ATOM     12  N   UNL     1     -64.662 -46.552 -57.977  0.00  0.00    +0.000 NA
ATOM     13  C   UNL     1     -63.450 -46.476 -58.692  0.00  0.00    +0.000 A 
ATOM     14  C   UNL     1     -63.493 -47.086 -59.943  0.00  0.00    +0.000 A 
ATOM     15  C   UNL     1     -62.280 -45.873 -58.270  0.00  0.00    +0.000 A 
ATOM     16  C   UNL     1     -64.841 -47.603 -60.056  0.00  0.00    +0.000 C 
ATOM     17  C   UNL     1     -62.430 -47.137 -60.818  0.00  0.00    +0.000 A 
ATOM     18  O   UNL     1     -65.356 -48.213 -60.964  0.00  0.00    +0.000 OA
ATOM     19  C   UNL     1     -61.253 -46.527 -60.388  0.00  0.00    +0.000 A 
ATOM     20  C   UNL     1     -61.177 -45.902 -59.131  0.00  0.00    +0.000 A 
ENDBRANCH   2  11
BRANCH   5  21
ATOM     21  O   UNL     1     -66.645 -48.512 -56.066  0.00  0.00    +0.000 OA
ATOM     22  H   UNL     1     -66.583 -47.803 -55.385  0.00  0.00    +0.000 HD
ENDBRANCH   5  21
TORSDOF 2
ENDMDL
MODEL 7
REMARK VINA RESULT:      -5.7     19.106     22.490
REMARK  Name = CHEMBL35349.pdbqt.pdb
REMARK  2 active torsions:
REMARK  status: ('A' for Active; 'I' for Inactive)
REMARK    1  A    between atoms: C_2  and  C_11
REMARK    2  A    between atoms: C_5  and  O_21
REMARK                            x       y       z     vdW  Elec       q    Type
REMARK                         _______ _______ _______ _____ _____    ______ ____
ROOT
ATOM      1  N   UNL     1     -63.902 -57.160 -12.392  0.00  0.00    +0.000 N 
ATOM      2  C   UNL     1     -64.121 -56.522 -14.520  0.00  0.00    +0.000 A 
ATOM      3  C   UNL     1     -64.395 -57.930 -14.416  0.00  0.00    +0.000 A 
ATOM      4  C   UNL     1     -64.249 -58.294 -13.079  0.00  0.00    +0.000 A 
ATOM      5  C   UNL     1     -63.819 -56.087 -13.238  0.00  0.00    +0.000 A 
ATOM      6  C   UNL     1     -64.753 -58.930 -15.342  0.00  0.00    +0.000 A 
ATOM      7  C   UNL     1     -64.442 -59.599 -12.614  0.00  0.00    +0.000 A 
ATOM      8  C   UNL     1     -64.952 -60.240 -14.900  0.00  0.00    +0.000 A 
ATOM      9  C   UNL     1     -64.797 -60.564 -13.557  0.00  0.00    +0.000 A 
ATOM     10  H   UNL     1     -63.728 -57.108 -11.399  0.00  0.00    +0.000 HD
ENDROOT
BRANCH   2  11
ATOM     11  C   UNL     1     -64.153 -55.720 -15.722  0.00  0.00    +0.000 C 
ATOM     12  N   UNL     1     -63.151 -55.673 -16.562  0.00  0.00    +0.000 NA
ATOM     13  C   UNL     1     -63.540 -54.801 -17.598  0.00  0.00    +0.000 A 
ATOM     14  C   UNL     1     -64.815 -54.265 -17.438  0.00  0.00    +0.000 A 
ATOM     15  C   UNL     1     -62.791 -54.452 -18.707  0.00  0.00    +0.000 A 
ATOM     16  C   UNL     1     -65.301 -54.834 -16.197  0.00  0.00    +0.000 C 
ATOM     17  C   UNL     1     -65.405 -53.390 -18.324  0.00  0.00    +0.000 A 
ATOM     18  O   UNL     1     -66.360 -54.666 -15.640  0.00  0.00    +0.000 OA
ATOM     19  C   UNL     1     -64.646 -53.042 -19.439  0.00  0.00    +0.000 A 
ATOM     20  C   UNL     1     -63.355 -53.565 -19.629  0.00  0.00    +0.000 A 
ENDBRANCH   2  11
BRANCH   5  21
ATOM     21  O   UNL     1     -63.490 -54.913 -12.710  0.00  0.00    +0.000 OA
ATOM     22  H   UNL     1     -62.623 -54.980 -12.250  0.00  0.00    +0.000 HD
ENDBRANCH   5  21
TORSDOF 2
ENDMDL
MODEL 8
REMARK VINA RESULT:      -5.7     22.608     24.552
REMARK  Name = CHEMBL35349.pdbqt.pdb
REMARK  2 active torsions:
REMARK  status: ('A' for Active; 'I' for Inactive)
REMARK    1  A    between atoms: C_2  and  C_11
REMARK    2  A    between atoms: C_5  and  O_21
REMARK                            x       y       z     vdW  Elec       q    Type
REMARK                         _______ _______ _______ _____ _____    ______ ____
ROOT
ATOM      1  N   UNL     1     -62.720 -46.003 -57.105  0.00  0.00    +0.000 N 
ATOM      2  C   UNL     1     -64.649 -46.614 -58.049  0.00  0.00    +0.000 A 
ATOM      3  C   UNL     1     -63.598 -46.683 -59.029  0.00  0.00    +0.000 A 
ATOM      4  C   UNL     1     -62.412 -46.295 -58.408  0.00  0.00    +0.000 A 
ATOM      5  C   UNL     1     -64.057 -46.187 -56.869  0.00  0.00    +0.000 A 
ATOM      6  C   UNL     1     -63.549 -47.039 -60.391  0.00  0.00    +0.000 A 
ATOM      7  C   UNL     1     -61.181 -46.244 -59.070  0.00  0.00    +0.000 A 
ATOM      8  C   UNL     1     -62.331 -46.997 -61.072  0.00  0.00    +0.000 A 
ATOM      9  C   UNL     1     -61.169 -46.605 -60.418  0.00  0.00    +0.000 A 
ATOM     10  H   UNL     1     -62.063 -45.692 -56.404  0.00  0.00    +0.000 HD
ENDROOT
BRANCH   2  11
ATOM     11  C   UNL     1     -66.045 -46.928 -58.253  0.00  0.00    +0.000 C 
ATOM     12  N   UNL     1     -66.688 -47.786 -57.504  0.00  0.00    +0.000 NA
ATOM     13  C   UNL     1     -68.009 -47.832 -57.994  0.00  0.00    +0.000 A 
ATOM     14  C   UNL     1     -68.239 -46.991 -59.080  0.00  0.00    +0.000 A 
ATOM     15  C   UNL     1     -69.044 -48.607 -57.504  0.00  0.00    +0.000 A 
ATOM     16  C   UNL     1     -66.966 -46.343 -59.321  0.00  0.00    +0.000 C 
ATOM     17  C   UNL     1     -69.451 -46.868 -59.723  0.00  0.00    +0.000 A 
ATOM     18  O   UNL     1     -66.667 -45.527 -60.161  0.00  0.00    +0.000 OA
ATOM     19  C   UNL     1     -70.491 -47.652 -59.226  0.00  0.00    +0.000 A 
ATOM     20  C   UNL     1     -70.291 -48.511 -58.131  0.00  0.00    +0.000 A 
ENDBRANCH   2  11
BRANCH   5  21
ATOM     21  O   UNL     1     -64.503 -45.941 -55.643  0.00  0.00    +0.000 OA
ATOM     22  H   UNL     1     -65.271 -46.521 -55.439  0.00  0.00    +0.000 HD
ENDBRANCH   5  21
TORSDOF 2
ENDMDL
MODEL 9
REMARK VINA RESULT:      -5.7      9.127      9.935
REMARK  Name = CHEMBL35349.pdbqt.pdb
REMARK  2 active torsions:
REMARK  status: ('A' for Active; 'I' for Inactive)
REMARK    1  A    between atoms: C_2  and  C_11
REMARK    2  A    between atoms: C_5  and  O_21
REMARK                            x       y       z     vdW  Elec       q    Type
REMARK                         _______ _______ _______ _____ _____    ______ ____
ROOT
ATOM      1  N   UNL     1     -66.802 -47.201 -38.125  0.00  0.00    +0.000 N 
ATOM      2  C   UNL     1     -66.285 -47.646 -35.999  0.00  0.00    +0.000 A 
ATOM      3  C   UNL     1     -65.075 -47.459 -36.752  0.00  0.00    +0.000 A 
ATOM      4  C   UNL     1     -65.432 -47.184 -38.071  0.00  0.00    +0.000 A 
ATOM      5  C   UNL     1     -67.332 -47.477 -36.893  0.00  0.00    +0.000 A 
ATOM      6  C   UNL     1     -63.703 -47.499 -36.431  0.00  0.00    +0.000 A 
ATOM      7  C   UNL     1     -64.499 -46.948 -39.086  0.00  0.00    +0.000 A 
ATOM      8  C   UNL     1     -62.753 -47.265 -37.427  0.00  0.00    +0.000 A 
ATOM      9  C   UNL     1     -63.150 -46.994 -38.732  0.00  0.00    +0.000 A 
ATOM     10  H   UNL     1     -67.357 -47.036 -38.952  0.00  0.00    +0.000 HD
ENDROOT
BRANCH   2  11
ATOM     11  C   UNL     1     -66.390 -47.950 -34.590  0.00  0.00    +0.000 C 
ATOM     12  N   UNL     1     -67.038 -48.996 -34.144  0.00  0.00    +0.000 NA
ATOM     13  C   UNL     1     -66.926 -48.964 -32.739  0.00  0.00    +0.000 A 
ATOM     14  C   UNL     1     -66.195 -47.883 -32.254  0.00  0.00    +0.000 A 
ATOM     15  C   UNL     1     -67.459 -49.878 -31.849  0.00  0.00    +0.000 A 
ATOM     16  C   UNL     1     -65.796 -47.147 -33.436  0.00  0.00    +0.000 C 
ATOM     17  C   UNL     1     -65.955 -47.647 -30.918  0.00  0.00    +0.000 A 
ATOM     18  O   UNL     1     -65.145 -46.132 -33.525  0.00  0.00    +0.000 OA
ATOM     19  C   UNL     1     -66.494 -48.570 -30.025  0.00  0.00    +0.000 A 
ATOM     20  C   UNL     1     -67.237 -49.672 -30.483  0.00  0.00    +0.000 A 
ENDBRANCH   2  11
BRANCH   5  21
ATOM     21  O   UNL     1     -68.656 -47.526 -36.792  0.00  0.00    +0.000 OA
ATOM     22  H   UNL     1     -69.069 -47.350 -37.668  0.00  0.00    +0.000 HD
ENDBRANCH   5  21
TORSDOF 2
ENDMDL
