REMARK  Name = CHEMBL35349.pdbqt.pdb
REMARK  2 active torsions:
REMARK  status: ('A' for Active; 'I' for Inactive)
REMARK    1  A    between atoms: C_2  and  C_11
REMARK    2  A    between atoms: C_5  and  O_21
REMARK                            x       y       z     vdW  Elec       q    Type
REMARK                         _______ _______ _______ _____ _____    ______ ____
ROOT
ATOM      1  N   UNL     1       2.893  -1.661   0.127  0.00  0.00    +0.000 N 
ATOM      2  C   UNL     1       0.964  -0.538   0.066  0.00  0.00    +0.000 A 
ATOM      3  C   UNL     1       2.058   0.395   0.032  0.00  0.00    +0.000 A 
ATOM      4  C   UNL     1       3.243  -0.337   0.072  0.00  0.00    +0.000 A 
ATOM      5  C   UNL     1       1.531  -1.803   0.125  0.00  0.00    +0.000 A 
ATOM      6  C   UNL     1       2.147   1.800  -0.028  0.00  0.00    +0.000 A 
ATOM      7  C   UNL     1       4.511   0.254   0.055  0.00  0.00    +0.000 A 
ATOM      8  C   UNL     1       3.402   2.412  -0.047  0.00  0.00    +0.000 A 
ATOM      9  C   UNL     1       4.562   1.647  -0.006  0.00  0.00    +0.000 A 
ATOM     10  H   UNL     1       3.539  -2.436   0.165  0.00  0.00    +0.000 HD
ENDROOT
BRANCH   2  11
ATOM     11  C   UNL     1      -0.446  -0.221   0.043  0.00  0.00    +0.000 C 
ATOM     12  N   UNL     1      -0.888   1.009  -0.013  0.00  0.00    +0.000 NA
ATOM     13  C   UNL     1      -2.295   0.927  -0.019  0.00  0.00    +0.000 A 
ATOM     14  C   UNL     1      -2.786  -0.375   0.034  0.00  0.00    +0.000 A 
ATOM     15  C   UNL     1      -3.182   1.986  -0.071  0.00  0.00    +0.000 A 
ATOM     16  C   UNL     1      -1.605  -1.213   0.078  0.00  0.00    +0.000 C 
ATOM     17  C   UNL     1      -4.125  -0.699   0.039  0.00  0.00    +0.000 A 
ATOM     18  O   UNL     1      -1.521  -2.418   0.131  0.00  0.00    +0.000 OA
ATOM     19  C   UNL     1      -5.015   0.372  -0.013  0.00  0.00    +0.000 A 
ATOM     20  C   UNL     1      -4.551   1.698  -0.067  0.00  0.00    +0.000 A 
ENDBRANCH   2  11
BRANCH   5  21
ATOM     21  O   UNL     1       1.043  -3.037   0.175  0.00  0.00    +0.000 OA
ATOM     22  H   UNL     1       0.059  -3.013   0.168  0.00  0.00    +0.000 HD
ENDBRANCH   5  21
TORSDOF 2
