MODEL 1
REMARK VINA RESULT:      -6.0      0.000      0.000
REMARK  Name = Chlortetracycline.pdbqt.pdb
REMARK  7 active torsions:
REMARK  status: ('A' for Active; 'I' for Inactive)
REMARK    1  A    between atoms: C_7  and  O_30
REMARK    2  A    between atoms: C_8  and  N_32
REMARK    3  A    between atoms: C_9  and  O_37
REMARK    4  A    between atoms: C_12  and  O_28
REMARK    5  A    between atoms: C_15  and  O_35
REMARK    6  A    between atoms: C_16  and  C_23
REMARK    7  A    between atoms: C_20  and  O_39
REMARK                            x       y       z     vdW  Elec       q    Type
REMARK                         _______ _______ _______ _____ _____    ______ ____
ROOT
ATOM      1 CL   UNL     1     -64.254 -47.345 -50.878  0.00  0.00    +0.000 Cl
ATOM      2  O   UNL     1     -66.552 -46.669 -58.332  0.00  0.00    +0.000 OA
ATOM      3  O   UNL     1     -60.491 -45.575 -58.119  0.00  0.00    +0.000 OA
ATOM      4  C   UNL     1     -63.672 -44.521 -57.326  0.00  0.00    +0.000 C 
ATOM      5  C   UNL     1     -64.519 -46.059 -55.356  0.00  0.00    +0.000 C 
ATOM      6  C   UNL     1     -63.822 -45.029 -56.019  0.00  0.00    +0.000 C 
ATOM      7  C   UNL     1     -64.557 -45.220 -58.331  0.00  0.00    +0.000 C 
ATOM      8  C   UNL     1     -62.352 -44.138 -57.795  0.00  0.00    +0.000 C 
ATOM      9  C   UNL     1     -64.610 -46.293 -53.873  0.00  0.00    +0.000 C 
ATOM     10  C   UNL     1     -65.371 -46.796 -56.264  0.00  0.00    +0.000 C 
ATOM     11  C   UNL     1     -65.579 -46.267 -57.680  0.00  0.00    +0.000 C 
ATOM     12  C   UNL     1     -63.767 -45.967 -59.410  0.00  0.00    +0.000 C 
ATOM     13  C   UNL     1     -65.105 -47.683 -53.505  0.00  0.00    +0.000 A 
ATOM     14  C   UNL     1     -61.615 -45.245 -58.467  0.00  0.00    +0.000 C 
ATOM     15  C   UNL     1     -65.998 -47.915 -55.856  0.00  0.00    +0.000 C 
ATOM     16  C   UNL     1     -62.416 -46.010 -59.475  0.00  0.00    +0.000 C 
ATOM     17  C   UNL     1     -65.756 -48.483 -54.493  0.00  0.00    +0.000 A 
ATOM     18  C   UNL     1     -65.502 -45.193 -53.264  0.00  0.00    +0.000 C 
ATOM     19  C   UNL     1     -64.950 -48.213 -52.202  0.00  0.00    +0.000 A 
ATOM     20  C   UNL     1     -66.147 -49.794 -54.141  0.00  0.00    +0.000 A 
ATOM     21  C   UNL     1     -65.380 -49.499 -51.886  0.00  0.00    +0.000 A 
ATOM     22  C   UNL     1     -65.963 -50.293 -52.855  0.00  0.00    +0.000 A 
ENDROOT
BRANCH  16  23
ATOM     23  C   UNL     1     -61.681 -46.704 -60.569  0.00  0.00    +0.000 C 
ATOM     24  O   UNL     1     -61.991 -47.825 -60.952  0.00  0.00    +0.000 OA
ATOM     25  N   UNL     1     -60.627 -46.045 -61.122  0.00  0.00    +0.000 N 
ATOM     26  H   UNL     1     -60.200 -45.266 -60.632  0.00  0.00    +0.000 HD
ATOM     27  H   UNL     1     -60.058 -46.562 -61.778  0.00  0.00    +0.000 HD
ENDBRANCH  16  23
BRANCH   8  28
ATOM     28  N   UNL     1     -62.041 -42.777 -58.142  0.00  0.00    +0.000 NA
ATOM     29  C   UNL     1     -61.876 -42.551 -59.571  0.00  0.00    +0.000 C 
ATOM     30  C   UNL     1     -63.000 -41.812 -57.645  0.00  0.00    +0.000 C 
ENDBRANCH   8  28
BRANCH  12  31
ATOM     31  O   UNL     1     -64.544 -46.565 -60.407  0.00  0.00    +0.000 OA
ATOM     32  H   UNL     1     -65.332 -45.997 -60.568  0.00  0.00    +0.000 HD
ENDBRANCH  12  31
BRANCH   7  33
ATOM     33  O   UNL     1     -65.290 -44.224 -59.045  0.00  0.00    +0.000 OA
ATOM     34  H   UNL     1     -65.951 -43.841 -58.438  0.00  0.00    +0.000 HD
ENDBRANCH   7  33
BRANCH  15  35
ATOM     35  O   UNL     1     -66.907 -48.595 -56.639  0.00  0.00    +0.000 OA
ATOM     36  H   UNL     1     -66.529 -48.768 -57.527  0.00  0.00    +0.000 HD
ENDBRANCH  15  35
BRANCH   9  37
ATOM     37  O   UNL     1     -63.308 -46.079 -53.365  0.00  0.00    +0.000 OA
ATOM     38  H   UNL     1     -62.834 -46.851 -53.726  0.00  0.00    +0.000 HD
ENDBRANCH   9  37
BRANCH  20  39
ATOM     39  O   UNL     1     -66.683 -50.652 -55.063  0.00  0.00    +0.000 OA
ATOM     40  H   UNL     1     -66.190 -50.581 -55.898  0.00  0.00    +0.000 HD
ENDBRANCH  20  39
TORSDOF 7
ENDMDL
MODEL 2
REMARK VINA RESULT:      -5.7     21.553     25.233
REMARK  Name = Chlortetracycline.pdbqt.pdb
REMARK  7 active torsions:
REMARK  status: ('A' for Active; 'I' for Inactive)
REMARK    1  A    between atoms: C_7  and  O_30
REMARK    2  A    between atoms: C_8  and  N_32
REMARK    3  A    between atoms: C_9  and  O_37
REMARK    4  A    between atoms: C_12  and  O_28
REMARK    5  A    between atoms: C_15  and  O_35
REMARK    6  A    between atoms: C_16  and  C_23
REMARK    7  A    between atoms: C_20  and  O_39
REMARK                            x       y       z     vdW  Elec       q    Type
REMARK                         _______ _______ _______ _____ _____    ______ ____
ROOT
ATOM      1 CL   UNL     1     -60.863 -59.208 -80.253  0.00  0.00    +0.000 Cl
ATOM      2  O   UNL     1     -68.206 -59.046 -77.540  0.00  0.00    +0.000 OA
ATOM      3  O   UNL     1     -64.539 -60.915 -72.953  0.00  0.00    +0.000 OA
ATOM      4  C   UNL     1     -65.970 -61.610 -76.007  0.00  0.00    +0.000 C 
ATOM      5  C   UNL     1     -64.721 -60.124 -77.794  0.00  0.00    +0.000 C 
ATOM      6  C   UNL     1     -64.963 -61.183 -76.897  0.00  0.00    +0.000 C 
ATOM      7  C   UNL     1     -67.199 -60.734 -76.050  0.00  0.00    +0.000 C 
ATOM      8  C   UNL     1     -65.597 -62.124 -74.701  0.00  0.00    +0.000 C 
ATOM      9  C   UNL     1     -63.577 -59.988 -78.760  0.00  0.00    +0.000 C 
ATOM     10  C   UNL     1     -65.849 -59.220 -77.868  0.00  0.00    +0.000 C 
ATOM     11  C   UNL     1     -67.160 -59.615 -77.195  0.00  0.00    +0.000 C 
ATOM     12  C   UNL     1     -67.473 -60.017 -74.724  0.00  0.00    +0.000 C 
ATOM     13  C   UNL     1     -63.398 -58.576 -79.297  0.00  0.00    +0.000 A 
ATOM     14  C   UNL     1     -65.533 -61.074 -73.646  0.00  0.00    +0.000 C 
ATOM     15  C   UNL     1     -65.754 -58.063 -78.549  0.00  0.00    +0.000 C 
ATOM     16  C   UNL     1     -66.705 -60.143 -73.616  0.00  0.00    +0.000 C 
ATOM     17  C   UNL     1     -64.459 -57.630 -79.160  0.00  0.00    +0.000 A 
ATOM     18  C   UNL     1     -63.783 -61.006 -79.900  0.00  0.00    +0.000 C 
ATOM     19  C   UNL     1     -62.207 -58.166 -79.942  0.00  0.00    +0.000 A 
ATOM     20  C   UNL     1     -64.241 -56.309 -79.610  0.00  0.00    +0.000 A 
ATOM     21  C   UNL     1     -62.044 -56.862 -80.402  0.00  0.00    +0.000 A 
ATOM     22  C   UNL     1     -63.050 -55.931 -80.224  0.00  0.00    +0.000 A 
ENDROOT
BRANCH  16  23
ATOM     23  C   UNL     1     -67.031 -59.470 -72.327  0.00  0.00    +0.000 C 
ATOM     24  O   UNL     1     -67.688 -58.439 -72.280  0.00  0.00    +0.000 OA
ATOM     25  N   UNL     1     -66.549 -60.044 -71.191  0.00  0.00    +0.000 N 
ATOM     26  H   UNL     1     -65.789 -60.713 -71.242  0.00  0.00    +0.000 HD
ATOM     27  H   UNL     1     -66.669 -59.525 -70.332  0.00  0.00    +0.000 HD
ENDBRANCH  16  23
BRANCH   8  28
ATOM     28  N   UNL     1     -65.866 -63.485 -74.321  0.00  0.00    +0.000 NA
ATOM     29  C   UNL     1     -66.975 -63.632 -73.389  0.00  0.00    +0.000 C 
ATOM     30  C   UNL     1     -66.104 -64.370 -75.442  0.00  0.00    +0.000 C 
ENDBRANCH   8  28
BRANCH  12  31
ATOM     31  O   UNL     1     -68.645 -59.256 -74.692  0.00  0.00    +0.000 OA
ATOM     32  H   UNL     1     -69.397 -59.853 -74.475  0.00  0.00    +0.000 HD
ENDBRANCH  12  31
BRANCH   7  33
ATOM     33  O   UNL     1     -68.337 -61.575 -76.248  0.00  0.00    +0.000 OA
ATOM     34  H   UNL     1     -69.135 -61.062 -76.023  0.00  0.00    +0.000 HD
ENDBRANCH   7  33
BRANCH  15  35
ATOM     35  O   UNL     1     -66.826 -57.219 -78.747  0.00  0.00    +0.000 OA
ATOM     36  H   UNL     1     -67.638 -57.735 -78.935  0.00  0.00    +0.000 HD
ENDBRANCH  15  35
BRANCH   9  37
ATOM     37  O   UNL     1     -62.422 -60.401 -78.057  0.00  0.00    +0.000 OA
ATOM     38  H   UNL     1     -62.815 -60.953 -77.356  0.00  0.00    +0.000 HD
ENDBRANCH   9  37
BRANCH  20  39
ATOM     39  O   UNL     1     -65.173 -55.325 -79.419  0.00  0.00    +0.000 OA
ATOM     40  H   UNL     1     -65.013 -54.887 -78.566  0.00  0.00    +0.000 HD
ENDBRANCH  20  39
TORSDOF 7
ENDMDL
MODEL 3
REMARK VINA RESULT:      -5.7     37.242     40.505
REMARK  Name = Chlortetracycline.pdbqt.pdb
REMARK  7 active torsions:
REMARK  status: ('A' for Active; 'I' for Inactive)
REMARK    1  A    between atoms: C_7  and  O_30
REMARK    2  A    between atoms: C_8  and  N_32
REMARK    3  A    between atoms: C_9  and  O_37
REMARK    4  A    between atoms: C_12  and  O_28
REMARK    5  A    between atoms: C_15  and  O_35
REMARK    6  A    between atoms: C_16  and  C_23
REMARK    7  A    between atoms: C_20  and  O_39
REMARK                            x       y       z     vdW  Elec       q    Type
REMARK                         _______ _______ _______ _____ _____    ______ ____
ROOT
ATOM      1 CL   UNL     1     -50.731 -57.365 -91.998  0.00  0.00    +0.000 Cl
ATOM      2  O   UNL     1     -57.228 -61.600 -90.932  0.00  0.00    +0.000 OA
ATOM      3  O   UNL     1     -54.084 -64.110 -95.601  0.00  0.00    +0.000 OA
ATOM      4  C   UNL     1     -55.946 -61.458 -94.433  0.00  0.00    +0.000 C 
ATOM      5  C   UNL     1     -54.413 -60.132 -92.744  0.00  0.00    +0.000 C 
ATOM      6  C   UNL     1     -54.939 -60.586 -93.970  0.00  0.00    +0.000 C 
ATOM      7  C   UNL     1     -56.771 -62.048 -93.314  0.00  0.00    +0.000 C 
ATOM      8  C   UNL     1     -55.666 -62.340 -95.552  0.00  0.00    +0.000 C 
ATOM      9  C   UNL     1     -53.392 -59.048 -92.534  0.00  0.00    +0.000 C 
ATOM     10  C   UNL     1     -55.137 -60.679 -91.617  0.00  0.00    +0.000 C 
ATOM     11  C   UNL     1     -56.434 -61.442 -91.870  0.00  0.00    +0.000 C 
ATOM     12  C   UNL     1     -56.642 -63.571 -93.209  0.00  0.00    +0.000 C 
ATOM     13  C   UNL     1     -52.763 -59.064 -91.149  0.00  0.00    +0.000 A 
ATOM     14  C   UNL     1     -55.128 -63.668 -95.144  0.00  0.00    +0.000 C 
ATOM     15  C   UNL     1     -54.692 -60.490 -90.361  0.00  0.00    +0.000 C 
ATOM     16  C   UNL     1     -55.873 -64.329 -94.026  0.00  0.00    +0.000 C 
ATOM     17  C   UNL     1     -53.391 -59.800 -90.099  0.00  0.00    +0.000 A 
ATOM     18  C   UNL     1     -54.058 -57.691 -92.838  0.00  0.00    +0.000 C 
ATOM     19  C   UNL     1     -51.569 -58.361 -90.861  0.00  0.00    +0.000 A 
ATOM     20  C   UNL     1     -52.750 -59.851 -88.841  0.00  0.00    +0.000 A 
ATOM     21  C   UNL     1     -50.987 -58.409 -89.597  0.00  0.00    +0.000 A 
ATOM     22  C   UNL     1     -51.565 -59.162 -88.594  0.00  0.00    +0.000 A 
ENDROOT
BRANCH  16  23
ATOM     23  C   UNL     1     -55.812 -65.815 -93.927  0.00  0.00    +0.000 C 
ATOM     24  O   UNL     1     -56.820 -66.509 -93.938  0.00  0.00    +0.000 OA
ATOM     25  N   UNL     1     -54.579 -66.376 -93.806  0.00  0.00    +0.000 N 
ATOM     26  H   UNL     1     -53.788 -65.810 -93.516  0.00  0.00    +0.000 HD
ATOM     27  H   UNL     1     -54.546 -67.369 -93.621  0.00  0.00    +0.000 HD
ENDBRANCH  16  23
BRANCH   8  28
ATOM     28  N   UNL     1     -56.375 -62.225 -96.799  0.00  0.00    +0.000 NA
ATOM     29  C   UNL     1     -57.516 -63.121 -96.918  0.00  0.00    +0.000 C 
ATOM     30  C   UNL     1     -56.829 -60.881 -97.092  0.00  0.00    +0.000 C 
ENDBRANCH   8  28
BRANCH  12  31
ATOM     31  O   UNL     1     -57.449 -64.169 -92.237  0.00  0.00    +0.000 OA
ATOM     32  H   UNL     1     -58.302 -64.424 -92.657  0.00  0.00    +0.000 HD
ENDBRANCH  12  31
BRANCH   7  33
ATOM     33  O   UNL     1     -58.149 -61.821 -93.612  0.00  0.00    +0.000 OA
ATOM     34  H   UNL     1     -58.471 -62.572 -94.145  0.00  0.00    +0.000 HD
ENDBRANCH   7  33
BRANCH  15  35
ATOM     35  O   UNL     1     -55.397 -60.891 -89.246  0.00  0.00    +0.000 OA
ATOM     36  H   UNL     1     -55.419 -60.173 -88.579  0.00  0.00    +0.000 HD
ENDBRANCH  15  35
BRANCH   9  37
ATOM     37  O   UNL     1     -52.407 -59.243 -93.529  0.00  0.00    +0.000 OA
ATOM     38  H   UNL     1     -52.140 -58.324 -93.714  0.00  0.00    +0.000 HD
ENDBRANCH   9  37
BRANCH  20  39
ATOM     39  O   UNL     1     -53.239 -60.619 -87.819  0.00  0.00    +0.000 OA
ATOM     40  H   UNL     1     -53.555 -60.042 -87.102  0.00  0.00    +0.000 HD
ENDBRANCH  20  39
TORSDOF 7
ENDMDL
MODEL 4
REMARK VINA RESULT:      -5.4      3.618      7.242
REMARK  Name = Chlortetracycline.pdbqt.pdb
REMARK  7 active torsions:
REMARK  status: ('A' for Active; 'I' for Inactive)
REMARK    1  A    between atoms: C_7  and  O_30
REMARK    2  A    between atoms: C_8  and  N_32
REMARK    3  A    between atoms: C_9  and  O_37
REMARK    4  A    between atoms: C_12  and  O_28
REMARK    5  A    between atoms: C_15  and  O_35
REMARK    6  A    between atoms: C_16  and  C_23
REMARK    7  A    between atoms: C_20  and  O_39
REMARK                            x       y       z     vdW  Elec       q    Type
REMARK                         _______ _______ _______ _____ _____    ______ ____
ROOT
ATOM      1 CL   UNL     1     -65.218 -48.010 -60.373  0.00  0.00    +0.000 Cl
ATOM      2  O   UNL     1     -62.654 -42.557 -55.374  0.00  0.00    +0.000 OA
ATOM      3  O   UNL     1     -63.688 -47.719 -52.170  0.00  0.00    +0.000 OA
ATOM      4  C   UNL     1     -65.004 -45.081 -53.949  0.00  0.00    +0.000 C 
ATOM      5  C   UNL     1     -64.465 -45.530 -56.494  0.00  0.00    +0.000 C 
ATOM      6  C   UNL     1     -65.106 -45.634 -55.243  0.00  0.00    +0.000 C 
ATOM      7  C   UNL     1     -63.949 -44.005 -53.854  0.00  0.00    +0.000 C 
ATOM      8  C   UNL     1     -65.139 -45.947 -52.791  0.00  0.00    +0.000 C 
ATOM      9  C   UNL     1     -64.889 -46.156 -57.793  0.00  0.00    +0.000 C 
ATOM     10  C   UNL     1     -63.416 -44.532 -56.473  0.00  0.00    +0.000 C 
ATOM     11  C   UNL     1     -63.289 -43.615 -55.261  0.00  0.00    +0.000 C 
ATOM     12  C   UNL     1     -62.805 -44.367 -52.901  0.00  0.00    +0.000 C 
ATOM     13  C   UNL     1     -63.795 -46.169 -58.849  0.00  0.00    +0.000 A 
ATOM     14  C   UNL     1     -63.846 -46.517 -52.320  0.00  0.00    +0.000 C 
ATOM     15  C   UNL     1     -62.584 -44.394 -57.522  0.00  0.00    +0.000 C 
ATOM     16  C   UNL     1     -62.729 -45.526 -52.206  0.00  0.00    +0.000 C 
ATOM     17  C   UNL     1     -62.653 -45.325 -58.691  0.00  0.00    +0.000 A 
ATOM     18  C   UNL     1     -66.151 -45.424 -58.293  0.00  0.00    +0.000 C 
ATOM     19  C   UNL     1     -63.873 -46.991 -59.998  0.00  0.00    +0.000 A 
ATOM     20  C   UNL     1     -61.622 -45.406 -59.653  0.00  0.00    +0.000 A 
ATOM     21  C   UNL     1     -62.849 -47.017 -60.942  0.00  0.00    +0.000 A 
ATOM     22  C   UNL     1     -61.721 -46.239 -60.764  0.00  0.00    +0.000 A 
ENDROOT
BRANCH  16  23
ATOM     23  C   UNL     1     -61.627 -45.823 -51.248  0.00  0.00    +0.000 C 
ATOM     24  O   UNL     1     -60.487 -45.415 -51.423  0.00  0.00    +0.000 OA
ATOM     25  N   UNL     1     -61.937 -46.589 -50.167  0.00  0.00    +0.000 N 
ATOM     26  H   UNL     1     -62.782 -47.151 -50.167  0.00  0.00    +0.000 HD
ATOM     27  H   UNL     1     -61.168 -46.888 -49.584  0.00  0.00    +0.000 HD
ENDBRANCH  16  23
BRANCH   8  28
ATOM     28  N   UNL     1     -66.219 -45.788 -51.853  0.00  0.00    +0.000 NA
ATOM     29  C   UNL     1     -67.124 -46.926 -51.793  0.00  0.00    +0.000 C 
ATOM     30  C   UNL     1     -65.784 -45.490 -50.504  0.00  0.00    +0.000 C 
ENDBRANCH   8  28
BRANCH  12  31
ATOM     31  O   UNL     1     -61.844 -43.368 -52.721  0.00  0.00    +0.000 OA
ATOM     32  H   UNL     1     -61.015 -43.790 -52.398  0.00  0.00    +0.000 HD
ENDBRANCH  12  31
BRANCH   7  33
ATOM     33  O   UNL     1     -64.549 -42.845 -53.275  0.00  0.00    +0.000 OA
ATOM     34  H   UNL     1     -64.935 -43.101 -52.417  0.00  0.00    +0.000 HD
ENDBRANCH   7  33
BRANCH  15  35
ATOM     35  O   UNL     1     -61.642 -43.391 -57.605  0.00  0.00    +0.000 OA
ATOM     36  H   UNL     1     -61.459 -43.020 -56.716  0.00  0.00    +0.000 HD
ENDBRANCH  15  35
BRANCH   9  37
ATOM     37  O   UNL     1     -65.290 -47.474 -57.477  0.00  0.00    +0.000 OA
ATOM     38  H   UNL     1     -65.190 -47.476 -56.507  0.00  0.00    +0.000 HD
ENDBRANCH   9  37
BRANCH  20  39
ATOM     39  O   UNL     1     -60.456 -44.704 -59.513  0.00  0.00    +0.000 OA
ATOM     40  H   UNL     1     -60.116 -44.462 -60.392  0.00  0.00    +0.000 HD
ENDBRANCH  20  39
TORSDOF 7
ENDMDL
MODEL 5
REMARK VINA RESULT:      -5.4     36.803     39.722
REMARK  Name = Chlortetracycline.pdbqt.pdb
REMARK  7 active torsions:
REMARK  status: ('A' for Active; 'I' for Inactive)
REMARK    1  A    between atoms: C_7  and  O_30
REMARK    2  A    between atoms: C_8  and  N_32
REMARK    3  A    between atoms: C_9  and  O_37
REMARK    4  A    between atoms: C_12  and  O_28
REMARK    5  A    between atoms: C_15  and  O_35
REMARK    6  A    between atoms: C_16  and  C_23
REMARK    7  A    between atoms: C_20  and  O_39
REMARK                            x       y       z     vdW  Elec       q    Type
REMARK                         _______ _______ _______ _____ _____    ______ ____
ROOT
ATOM      1 CL   UNL     1     -44.462 -60.505 -94.092  0.00  0.00    +0.000 Cl
ATOM      2  O   UNL     1     -48.008 -57.763 -87.673  0.00  0.00    +0.000 OA
ATOM      3  O   UNL     1     -52.374 -59.152 -91.794  0.00  0.00    +0.000 OA
ATOM      4  C   UNL     1     -49.760 -57.097 -90.899  0.00  0.00    +0.000 C 
ATOM      5  C   UNL     1     -47.544 -58.491 -91.226  0.00  0.00    +0.000 C 
ATOM      6  C   UNL     1     -48.675 -57.717 -91.553  0.00  0.00    +0.000 C 
ATOM      7  C   UNL     1     -49.687 -57.221 -89.396  0.00  0.00    +0.000 C 
ATOM      8  C   UNL     1     -51.087 -57.182 -91.483  0.00  0.00    +0.000 C 
ATOM      9  C   UNL     1     -46.431 -58.915 -92.143  0.00  0.00    +0.000 C 
ATOM     10  C   UNL     1     -47.421 -58.679 -89.796  0.00  0.00    +0.000 C 
ATOM     11  C   UNL     1     -48.330 -57.884 -88.863  0.00  0.00    +0.000 C 
ATOM     12  C   UNL     1     -50.848 -58.025 -88.802  0.00  0.00    +0.000 C 
ATOM     13  C   UNL     1     -45.579 -60.045 -91.587  0.00  0.00    +0.000 A 
ATOM     14  C   UNL     1     -51.870 -58.359 -91.013  0.00  0.00    +0.000 C 
ATOM     15  C   UNL     1     -46.497 -59.519 -89.294  0.00  0.00    +0.000 C 
ATOM     16  C   UNL     1     -51.847 -58.576 -89.531  0.00  0.00    +0.000 C 
ATOM     17  C   UNL     1     -45.643 -60.354 -90.193  0.00  0.00    +0.000 A 
ATOM     18  C   UNL     1     -45.579 -57.673 -92.475  0.00  0.00    +0.000 C 
ATOM     19  C   UNL     1     -44.710 -60.803 -92.407  0.00  0.00    +0.000 A 
ATOM     20  C   UNL     1     -44.890 -61.450 -89.716  0.00  0.00    +0.000 A 
ATOM     21  C   UNL     1     -43.958 -61.855 -91.891  0.00  0.00    +0.000 A 
ATOM     22  C   UNL     1     -44.058 -62.189 -90.554  0.00  0.00    +0.000 A 
ENDROOT
BRANCH  16  23
ATOM     23  C   UNL     1     -52.989 -59.308 -88.915  0.00  0.00    +0.000 C 
ATOM     24  O   UNL     1     -52.824 -60.163 -88.054  0.00  0.00    +0.000 OA
ATOM     25  N   UNL     1     -54.235 -59.000 -89.363  0.00  0.00    +0.000 N 
ATOM     26  H   UNL     1     -54.353 -58.519 -90.249  0.00  0.00    +0.000 HD
ATOM     27  H   UNL     1     -54.996 -59.578 -89.033  0.00  0.00    +0.000 HD
ENDBRANCH  16  23
BRANCH   8  28
ATOM     28  N   UNL     1     -51.788 -56.010 -91.937  0.00  0.00    +0.000 NA
ATOM     29  C   UNL     1     -52.193 -56.065 -93.334  0.00  0.00    +0.000 C 
ATOM     30  C   UNL     1     -52.956 -55.683 -91.145  0.00  0.00    +0.000 C 
ENDBRANCH   8  28
BRANCH  12  31
ATOM     31  O   UNL     1     -50.865 -58.100 -87.406  0.00  0.00    +0.000 OA
ATOM     32  H   UNL     1     -51.279 -58.956 -87.147  0.00  0.00    +0.000 HD
ENDBRANCH  12  31
BRANCH   7  33
ATOM     33  O   UNL     1     -49.828 -55.915 -88.835  0.00  0.00    +0.000 OA
ATOM     34  H   UNL     1     -49.871 -56.005 -87.865  0.00  0.00    +0.000 HD
ENDBRANCH   7  33
BRANCH  15  35
ATOM     35  O   UNL     1     -46.261 -59.654 -87.942  0.00  0.00    +0.000 OA
ATOM     36  H   UNL     1     -45.620 -58.977 -87.639  0.00  0.00    +0.000 HD
ENDBRANCH  15  35
BRANCH   9  37
ATOM     37  O   UNL     1     -47.051 -59.310 -93.351  0.00  0.00    +0.000 OA
ATOM     38  H   UNL     1     -46.423 -59.981 -93.676  0.00  0.00    +0.000 HD
ENDBRANCH   9  37
BRANCH  20  39
ATOM     39  O   UNL     1     -44.981 -61.868 -88.416  0.00  0.00    +0.000 OA
ATOM     40  H   UNL     1     -45.412 -61.179 -87.883  0.00  0.00    +0.000 HD
ENDBRANCH  20  39
TORSDOF 7
ENDMDL
MODEL 6
REMARK VINA RESULT:      -5.2     23.098     27.238
REMARK  Name = Chlortetracycline.pdbqt.pdb
REMARK  7 active torsions:
REMARK  status: ('A' for Active; 'I' for Inactive)
REMARK    1  A    between atoms: C_7  and  O_30
REMARK    2  A    between atoms: C_8  and  N_32
REMARK    3  A    between atoms: C_9  and  O_37
REMARK    4  A    between atoms: C_12  and  O_28
REMARK    5  A    between atoms: C_15  and  O_35
REMARK    6  A    between atoms: C_16  and  C_23
REMARK    7  A    between atoms: C_20  and  O_39
REMARK                            x       y       z     vdW  Elec       q    Type
REMARK                         _______ _______ _______ _____ _____    ______ ____
ROOT
ATOM      1 CL   UNL     1     -74.453 -58.188 -30.474  0.00  0.00    +0.000 Cl
ATOM      2  O   UNL     1     -67.050 -59.168 -32.828  0.00  0.00    +0.000 OA
ATOM      3  O   UNL     1     -70.716 -60.082 -37.697  0.00  0.00    +0.000 OA
ATOM      4  C   UNL     1     -69.605 -61.200 -34.635  0.00  0.00    +0.000 C 
ATOM      5  C   UNL     1     -70.678 -59.625 -32.810  0.00  0.00    +0.000 C 
ATOM      6  C   UNL     1     -70.573 -60.655 -33.766  0.00  0.00    +0.000 C 
ATOM      7  C   UNL     1     -68.247 -60.559 -34.476  0.00  0.00    +0.000 C 
ATOM      8  C   UNL     1     -69.986 -61.560 -35.990  0.00  0.00    +0.000 C 
ATOM      9  C   UNL     1     -71.834 -59.346 -31.891  0.00  0.00    +0.000 C 
ATOM     10  C   UNL     1     -69.416 -58.941 -32.622  0.00  0.00    +0.000 C 
ATOM     11  C   UNL     1     -68.157 -59.521 -33.259  0.00  0.00    +0.000 C 
ATOM     12  C   UNL     1     -67.777 -59.825 -35.735  0.00  0.00    +0.000 C 
ATOM     13  C   UNL     1     -71.796 -57.960 -31.267  0.00  0.00    +0.000 A 
ATOM     14  C   UNL     1     -69.806 -60.455 -36.972  0.00  0.00    +0.000 C 
ATOM     15  C   UNL     1     -69.347 -57.828 -31.869  0.00  0.00    +0.000 C 
ATOM     16  C   UNL     1     -68.490 -59.746 -36.883  0.00  0.00    +0.000 C 
ATOM     17  C   UNL     1     -70.580 -57.210 -31.289  0.00  0.00    +0.000 A 
ATOM     18  C   UNL     1     -71.875 -60.451 -30.816  0.00  0.00    +0.000 C 
ATOM     19  C   UNL     1     -72.933 -57.383 -30.651  0.00  0.00    +0.000 A 
ATOM     20  C   UNL     1     -70.591 -55.900 -30.761  0.00  0.00    +0.000 A 
ATOM     21  C   UNL     1     -72.893 -56.101 -30.111  0.00  0.00    +0.000 A 
ATOM     22  C   UNL     1     -71.732 -55.355 -30.178  0.00  0.00    +0.000 A 
ENDROOT
BRANCH  16  23
ATOM     23  C   UNL     1     -67.979 -59.067 -38.107  0.00  0.00    +0.000 C 
ATOM     24  O   UNL     1     -67.623 -57.896 -38.100  0.00  0.00    +0.000 OA
ATOM     25  N   UNL     1     -67.939 -59.801 -39.251  0.00  0.00    +0.000 N 
ATOM     26  H   UNL     1     -68.484 -60.654 -39.328  0.00  0.00    +0.000 HD
ATOM     27  H   UNL     1     -67.706 -59.308 -40.103  0.00  0.00    +0.000 HD
ENDBRANCH  16  23
BRANCH   8  28
ATOM     28  N   UNL     1     -69.936 -62.923 -36.450  0.00  0.00    +0.000 NA
ATOM     29  C   UNL     1     -68.871 -63.187 -37.407  0.00  0.00    +0.000 C 
ATOM     30  C   UNL     1     -69.832 -63.898 -35.383  0.00  0.00    +0.000 C 
ENDBRANCH   8  28
BRANCH  12  31
ATOM     31  O   UNL     1     -66.491 -59.282 -35.661  0.00  0.00    +0.000 OA
ATOM     32  H   UNL     1     -65.861 -60.008 -35.447  0.00  0.00    +0.000 HD
ENDBRANCH  12  31
BRANCH   7  33
ATOM     33  O   UNL     1     -67.286 -61.598 -34.284  0.00  0.00    +0.000 OA
ATOM     34  H   UNL     1     -67.489 -62.046 -33.442  0.00  0.00    +0.000 HD
ENDBRANCH   7  33
BRANCH  15  35
ATOM     35  O   UNL     1     -68.158 -57.200 -31.564  0.00  0.00    +0.000 OA
ATOM     36  H   UNL     1     -68.281 -56.228 -31.543  0.00  0.00    +0.000 HD
ENDBRANCH  15  35
BRANCH   9  37
ATOM     37  O   UNL     1     -73.001 -59.506 -32.674  0.00  0.00    +0.000 OA
ATOM     38  H   UNL     1     -73.319 -60.374 -32.365  0.00  0.00    +0.000 HD
ENDBRANCH   9  37
BRANCH  20  39
ATOM     39  O   UNL     1     -69.493 -55.088 -30.840  0.00  0.00    +0.000 OA
ATOM     40  H   UNL     1     -69.688 -54.236 -30.413  0.00  0.00    +0.000 HD
ENDBRANCH  20  39
TORSDOF 7
ENDMDL
MODEL 7
REMARK VINA RESULT:      -5.1     20.686     23.390
REMARK  Name = Chlortetracycline.pdbqt.pdb
REMARK  7 active torsions:
REMARK  status: ('A' for Active; 'I' for Inactive)
REMARK    1  A    between atoms: C_7  and  O_30
REMARK    2  A    between atoms: C_8  and  N_32
REMARK    3  A    between atoms: C_9  and  O_37
REMARK    4  A    between atoms: C_12  and  O_28
REMARK    5  A    between atoms: C_15  and  O_35
REMARK    6  A    between atoms: C_16  and  C_23
REMARK    7  A    between atoms: C_20  and  O_39
REMARK                            x       y       z     vdW  Elec       q    Type
REMARK                         _______ _______ _______ _____ _____    ______ ____
ROOT
ATOM      1 CL   UNL     1     -66.138 -60.428 -71.461  0.00  0.00    +0.000 Cl
ATOM      2  O   UNL     1     -63.137 -66.970 -68.379  0.00  0.00    +0.000 OA
ATOM      3  O   UNL     1     -58.716 -64.248 -71.700  0.00  0.00    +0.000 OA
ATOM      4  C   UNL     1     -61.719 -65.934 -71.671  0.00  0.00    +0.000 C 
ATOM      5  C   UNL     1     -63.538 -64.243 -70.781  0.00  0.00    +0.000 C 
ATOM      6  C   UNL     1     -62.643 -64.869 -71.671  0.00  0.00    +0.000 C 
ATOM      7  C   UNL     1     -61.704 -66.697 -70.368  0.00  0.00    +0.000 C 
ATOM      8  C   UNL     1     -60.433 -65.763 -72.325  0.00  0.00    +0.000 C 
ATOM      9  C   UNL     1     -64.547 -63.175 -71.100  0.00  0.00    +0.000 C 
ATOM     10  C   UNL     1     -63.559 -64.903 -69.493  0.00  0.00    +0.000 C 
ATOM     11  C   UNL     1     -62.839 -66.239 -69.334  0.00  0.00    +0.000 C 
ATOM     12  C   UNL     1     -60.362 -66.611 -69.636  0.00  0.00    +0.000 C 
ATOM     13  C   UNL     1     -65.076 -62.450 -69.872  0.00  0.00    +0.000 A 
ATOM     14  C   UNL     1     -59.371 -65.242 -71.421  0.00  0.00    +0.000 C 
ATOM     15  C   UNL     1     -64.231 -64.364 -68.459  0.00  0.00    +0.000 C 
ATOM     16  C   UNL     1     -59.286 -65.928 -70.093  0.00  0.00    +0.000 C 
ATOM     17  C   UNL     1     -64.888 -63.026 -68.579  0.00  0.00    +0.000 A 
ATOM     18  C   UNL     1     -65.688 -63.816 -71.916  0.00  0.00    +0.000 C 
ATOM     19  C   UNL     1     -65.763 -61.216 -69.969  0.00  0.00    +0.000 A 
ATOM     20  C   UNL     1     -65.332 -62.300 -67.452  0.00  0.00    +0.000 A 
ATOM     21  C   UNL     1     -66.216 -60.548 -68.834  0.00  0.00    +0.000 A 
ATOM     22  C   UNL     1     -65.989 -61.079 -67.579  0.00  0.00    +0.000 A 
ENDROOT
BRANCH  16  23
ATOM     23  C   UNL     1     -57.978 -65.909 -69.379  0.00  0.00    +0.000 C 
ATOM     24  O   UNL     1     -57.381 -66.937 -69.088  0.00  0.00    +0.000 OA
ATOM     25  N   UNL     1     -57.475 -64.690 -69.042  0.00  0.00    +0.000 N 
ATOM     26  H   UNL     1     -58.082 -63.877 -69.023  0.00  0.00    +0.000 HD
ATOM     27  H   UNL     1     -56.652 -64.682 -68.456  0.00  0.00    +0.000 HD
ENDBRANCH  16  23
BRANCH   8  28
ATOM     28  N   UNL     1     -60.057 -66.554 -73.466  0.00  0.00    +0.000 NA
ATOM     29  C   UNL     1     -58.640 -66.886 -73.517  0.00  0.00    +0.000 C 
ATOM     30  C   UNL     1     -60.810 -67.785 -73.600  0.00  0.00    +0.000 C 
ENDBRANCH   8  28
BRANCH  12  31
ATOM     31  O   UNL     1     -60.276 -67.366 -68.463  0.00  0.00    +0.000 OA
ATOM     32  H   UNL     1     -59.558 -68.031 -68.574  0.00  0.00    +0.000 HD
ENDBRANCH  12  31
BRANCH   7  33
ATOM     33  O   UNL     1     -61.866 -68.085 -70.664  0.00  0.00    +0.000 OA
ATOM     34  H   UNL     1     -62.449 -68.163 -71.442  0.00  0.00    +0.000 HD
ENDBRANCH   7  33
BRANCH  15  35
ATOM     35  O   UNL     1     -64.378 -65.002 -67.246  0.00  0.00    +0.000 OA
ATOM     36  H   UNL     1     -64.313 -64.356 -66.511  0.00  0.00    +0.000 HD
ENDBRANCH  15  35
BRANCH   9  37
ATOM     37  O   UNL     1     -63.894 -62.269 -71.968  0.00  0.00    +0.000 OA
ATOM     38  H   UNL     1     -63.645 -61.559 -71.348  0.00  0.00    +0.000 HD
ENDBRANCH   9  37
BRANCH  20  39
ATOM     39  O   UNL     1     -65.095 -62.740 -66.178  0.00  0.00    +0.000 OA
ATOM     40  H   UNL     1     -64.137 -62.835 -66.040  0.00  0.00    +0.000 HD
ENDBRANCH  20  39
TORSDOF 7
ENDMDL
MODEL 8
REMARK VINA RESULT:      -5.0     32.882     34.804
REMARK  Name = Chlortetracycline.pdbqt.pdb
REMARK  7 active torsions:
REMARK  status: ('A' for Active; 'I' for Inactive)
REMARK    1  A    between atoms: C_7  and  O_30
REMARK    2  A    between atoms: C_8  and  N_32
REMARK    3  A    between atoms: C_9  and  O_37
REMARK    4  A    between atoms: C_12  and  O_28
REMARK    5  A    between atoms: C_15  and  O_35
REMARK    6  A    between atoms: C_16  and  C_23
REMARK    7  A    between atoms: C_20  and  O_39
REMARK                            x       y       z     vdW  Elec       q    Type
REMARK                         _______ _______ _______ _____ _____    ______ ____
ROOT
ATOM      1 CL   UNL     1     -64.280 -68.693 -85.135  0.00  0.00    +0.000 Cl
ATOM      2  O   UNL     1     -58.396 -66.920 -80.284  0.00  0.00    +0.000 OA
ATOM      3  O   UNL     1     -58.287 -73.008 -81.237  0.00  0.00    +0.000 OA
ATOM      4  C   UNL     1     -59.898 -70.306 -79.835  0.00  0.00    +0.000 C 
ATOM      5  C   UNL     1     -61.010 -68.965 -81.818  0.00  0.00    +0.000 C 
ATOM      6  C   UNL     1     -60.821 -69.969 -80.847  0.00  0.00    +0.000 C 
ATOM      7  C   UNL     1     -58.811 -69.271 -79.667  0.00  0.00    +0.000 C 
ATOM      8  C   UNL     1     -59.492 -71.691 -79.673  0.00  0.00    +0.000 C 
ATOM      9  C   UNL     1     -62.206 -68.767 -82.706  0.00  0.00    +0.000 C 
ATOM     10  C   UNL     1     -59.985 -67.947 -81.738  0.00  0.00    +0.000 C 
ATOM     11  C   UNL     1     -59.025 -67.954 -80.552  0.00  0.00    +0.000 C 
ATOM     12  C   UNL     1     -57.413 -69.811 -79.985  0.00  0.00    +0.000 C 
ATOM     13  C   UNL     1     -61.942 -67.847 -83.888  0.00  0.00    +0.000 A 
ATOM     14  C   UNL     1     -58.289 -72.056 -80.470  0.00  0.00    +0.000 C 
ATOM     15  C   UNL     1     -59.899 -66.987 -82.677  0.00  0.00    +0.000 C 
ATOM     16  C   UNL     1     -57.157 -71.080 -80.379  0.00  0.00    +0.000 C 
ATOM     17  C   UNL     1     -60.791 -67.001 -83.879  0.00  0.00    +0.000 A 
ATOM     18  C   UNL     1     -63.373 -68.254 -81.838  0.00  0.00    +0.000 C 
ATOM     19  C   UNL     1     -62.810 -67.793 -85.005  0.00  0.00    +0.000 A 
ATOM     20  C   UNL     1     -60.535 -66.206 -85.018  0.00  0.00    +0.000 A 
ATOM     21  C   UNL     1     -62.540 -66.969 -86.094  0.00  0.00    +0.000 A 
ATOM     22  C   UNL     1     -61.399 -66.189 -86.109  0.00  0.00    +0.000 A 
ENDROOT
BRANCH  16  23
ATOM     23  C   UNL     1     -55.777 -71.585 -80.631  0.00  0.00    +0.000 C 
ATOM     24  O   UNL     1     -54.876 -71.450 -79.813  0.00  0.00    +0.000 OA
ATOM     25  N   UNL     1     -55.550 -72.194 -81.826  0.00  0.00    +0.000 N 
ATOM     26  H   UNL     1     -56.194 -72.057 -82.597  0.00  0.00    +0.000 HD
ATOM     27  H   UNL     1     -54.591 -72.428 -82.044  0.00  0.00    +0.000 HD
ENDBRANCH  16  23
BRANCH   8  28
ATOM     28  N   UNL     1     -59.787 -72.426 -78.471  0.00  0.00    +0.000 NA
ATOM     29  C   UNL     1     -58.659 -72.548 -77.559  0.00  0.00    +0.000 C 
ATOM     30  C   UNL     1     -60.912 -71.902 -77.725  0.00  0.00    +0.000 C 
ENDBRANCH   8  28
BRANCH  12  31
ATOM     31  O   UNL     1     -56.366 -68.910 -79.768  0.00  0.00    +0.000 OA
ATOM     32  H   UNL     1     -55.551 -69.426 -79.566  0.00  0.00    +0.000 HD
ENDBRANCH  12  31
BRANCH   7  33
ATOM     33  O   UNL     1     -58.753 -68.910 -78.286  0.00  0.00    +0.000 OA
ATOM     34  H   UNL     1     -59.003 -69.690 -77.758  0.00  0.00    +0.000 HD
ENDBRANCH   7  33
BRANCH  15  35
ATOM     35  O   UNL     1     -59.018 -65.930 -82.593  0.00  0.00    +0.000 OA
ATOM     36  H   UNL     1     -59.487 -65.115 -82.316  0.00  0.00    +0.000 HD
ENDBRANCH  15  35
BRANCH   9  37
ATOM     37  O   UNL     1     -62.577 -70.056 -83.154  0.00  0.00    +0.000 OA
ATOM     38  H   UNL     1     -61.920 -70.208 -83.858  0.00  0.00    +0.000 HD
ENDBRANCH   9  37
BRANCH  20  39
ATOM     39  O   UNL     1     -59.399 -65.449 -85.122  0.00  0.00    +0.000 OA
ATOM     40  H   UNL     1     -58.905 -65.714 -85.917  0.00  0.00    +0.000 HD
ENDBRANCH  20  39
TORSDOF 7
ENDMDL
MODEL 9
REMARK VINA RESULT:      -4.9      8.602     11.502
REMARK  Name = Chlortetracycline.pdbqt.pdb
REMARK  7 active torsions:
REMARK  status: ('A' for Active; 'I' for Inactive)
REMARK    1  A    between atoms: C_7  and  O_30
REMARK    2  A    between atoms: C_8  and  N_32
REMARK    3  A    between atoms: C_9  and  O_37
REMARK    4  A    between atoms: C_12  and  O_28
REMARK    5  A    between atoms: C_15  and  O_35
REMARK    6  A    between atoms: C_16  and  C_23
REMARK    7  A    between atoms: C_20  and  O_39
REMARK                            x       y       z     vdW  Elec       q    Type
REMARK                         _______ _______ _______ _____ _____    ______ ____
ROOT
ATOM      1 CL   UNL     1     -57.418 -47.220 -42.928  0.00  0.00    +0.000 Cl
ATOM      2  O   UNL     1     -62.976 -42.374 -45.559  0.00  0.00    +0.000 OA
ATOM      3  O   UNL     1     -62.415 -46.982 -49.613  0.00  0.00    +0.000 OA
ATOM      4  C   UNL     1     -61.026 -44.175 -48.181  0.00  0.00    +0.000 C 
ATOM      5  C   UNL     1     -60.289 -44.847 -45.738  0.00  0.00    +0.000 C 
ATOM      6  C   UNL     1     -60.255 -44.737 -47.143  0.00  0.00    +0.000 C 
ATOM      7  C   UNL     1     -62.212 -43.391 -47.672  0.00  0.00    +0.000 C 
ATOM      8  C   UNL     1     -61.238 -44.932 -49.403  0.00  0.00    +0.000 C 
ATOM      9  C   UNL     1     -59.219 -45.401 -44.839  0.00  0.00    +0.000 C 
ATOM     10  C   UNL     1     -61.421 -44.141 -45.175  0.00  0.00    +0.000 C 
ATOM     11  C   UNL     1     -62.252 -43.235 -46.078  0.00  0.00    +0.000 C 
ATOM     12  C   UNL     1     -63.556 -43.986 -48.104  0.00  0.00    +0.000 C 
ATOM     13  C   UNL     1     -59.710 -45.729 -43.438  0.00  0.00    +0.000 A 
ATOM     14  C   UNL     1     -62.458 -45.785 -49.370  0.00  0.00    +0.000 C 
ATOM     15  C   UNL     1     -61.716 -44.256 -43.867  0.00  0.00    +0.000 C 
ATOM     16  C   UNL     1     -63.689 -45.099 -48.864  0.00  0.00    +0.000 C 
ATOM     17  C   UNL     1     -60.952 -45.189 -42.982  0.00  0.00    +0.000 A 
ATOM     18  C   UNL     1     -58.046 -44.400 -44.809  0.00  0.00    +0.000 C 
ATOM     19  C   UNL     1     -58.969 -46.552 -42.557  0.00  0.00    +0.000 A 
ATOM     20  C   UNL     1     -61.415 -45.563 -41.701  0.00  0.00    +0.000 A 
ATOM     21  C   UNL     1     -59.445 -46.870 -41.288  0.00  0.00    +0.000 A 
ATOM     22  C   UNL     1     -60.670 -46.390 -40.865  0.00  0.00    +0.000 A 
ENDROOT
BRANCH  16  23
ATOM     23  C   UNL     1     -65.012 -45.620 -49.308  0.00  0.00    +0.000 C 
ATOM     24  O   UNL     1     -66.044 -45.385 -48.693  0.00  0.00    +0.000 OA
ATOM     25  N   UNL     1     -65.028 -46.391 -50.429  0.00  0.00    +0.000 N 
ATOM     26  H   UNL     1     -64.171 -46.814 -50.768  0.00  0.00    +0.000 HD
ATOM     27  H   UNL     1     -65.903 -46.841 -50.661  0.00  0.00    +0.000 HD
ENDBRANCH  16  23
BRANCH   8  28
ATOM     28  N   UNL     1     -60.738 -44.471 -50.671  0.00  0.00    +0.000 NA
ATOM     29  C   UNL     1     -61.776 -44.054 -51.602  0.00  0.00    +0.000 C 
ATOM     30  C   UNL     1     -59.773 -43.396 -50.565  0.00  0.00    +0.000 C 
ENDBRANCH   8  28
BRANCH  12  31
ATOM     31  O   UNL     1     -64.681 -43.250 -47.721  0.00  0.00    +0.000 OA
ATOM     32  H   UNL     1     -64.527 -42.897 -46.815  0.00  0.00    +0.000 HD
ENDBRANCH  12  31
BRANCH   7  33
ATOM     33  O   UNL     1     -62.180 -42.096 -48.274  0.00  0.00    +0.000 OA
ATOM     34  H   UNL     1     -61.288 -41.725 -48.146  0.00  0.00    +0.000 HD
ENDBRANCH   7  33
BRANCH  15  35
ATOM     35  O   UNL     1     -62.711 -43.524 -43.256  0.00  0.00    +0.000 OA
ATOM     36  H   UNL     1     -63.558 -44.016 -43.273  0.00  0.00    +0.000 HD
ENDBRANCH  15  35
BRANCH   9  37
ATOM     37  O   UNL     1     -58.736 -46.565 -45.481  0.00  0.00    +0.000 OA
ATOM     38  H   UNL     1     -59.480 -46.778 -46.073  0.00  0.00    +0.000 HD
ENDBRANCH   9  37
BRANCH  20  39
ATOM     39  O   UNL     1     -62.641 -45.167 -41.240  0.00  0.00    +0.000 OA
ATOM     40  H   UNL     1     -62.587 -44.994 -40.284  0.00  0.00    +0.000 HD
ENDBRANCH  20  39
TORSDOF 7
ENDMDL
