MODEL 1
REMARK VINA RESULT:      -4.9      0.000      0.000
REMARK  Name = Ciclopirox.pdbqt.pdb
REMARK  2 active torsions:
REMARK  status: ('A' for Active; 'I' for Inactive)
REMARK    1  A    between atoms: N_2  and  O_15
REMARK    2  A    between atoms: C_3  and  C_9
REMARK                            x       y       z     vdW  Elec       q    Type
REMARK                         _______ _______ _______ _____ _____    ______ ____
ROOT
ATOM      1  O   UNL     1     -59.128 -60.409 -64.258  0.00  0.00    +0.000 OA
ATOM      2  N   UNL     1     -57.631 -59.654 -65.894  0.00  0.00    +0.000 N 
ATOM      3  C   UNL     1     -56.410 -59.034 -66.194  0.00  0.00    +0.000 C 
ATOM      4  C   UNL     1     -55.789 -58.658 -65.104  0.00  0.00    +0.000 C 
ATOM      5  C   UNL     1     -56.026 -58.691 -63.699  0.00  0.00    +0.000 C 
ATOM      6  C   UNL     1     -58.096 -59.837 -64.579  0.00  0.00    +0.000 C 
ATOM      7  C   UNL     1     -57.177 -59.288 -63.609  0.00  0.00    +0.000 C 
ATOM      8  C   UNL     1     -55.702 -57.508 -62.849  0.00  0.00    +0.000 C 
ENDROOT
BRANCH   3   9
ATOM      9  C   UNL     1     -55.888 -58.844 -67.515  0.00  0.00    +0.000 A 
ATOM     10  C   UNL     1     -54.862 -59.674 -68.104  0.00  0.00    +0.000 A 
ATOM     11  C   UNL     1     -54.016 -59.471 -69.382  0.00  0.00    +0.000 A 
ATOM     12  C   UNL     1     -54.289 -58.182 -70.179  0.00  0.00    +0.000 A 
ATOM     13  C   UNL     1     -55.368 -57.229 -69.634  0.00  0.00    +0.000 A 
ATOM     14  C   UNL     1     -56.072 -57.669 -68.331  0.00  0.00    +0.000 A 
ENDBRANCH   3   9
BRANCH   2  15
ATOM     15  O   UNL     1     -58.394 -60.204 -66.943  0.00  0.00    +0.000 OA
ATOM     16  H   UNL     1     -59.251 -59.739 -66.849  0.00  0.00    +0.000 HD
ENDBRANCH   2  15
TORSDOF 2
ENDMDL
MODEL 2
REMARK VINA RESULT:      -4.9     33.941     37.051
REMARK  Name = Ciclopirox.pdbqt.pdb
REMARK  2 active torsions:
REMARK  status: ('A' for Active; 'I' for Inactive)
REMARK    1  A    between atoms: N_2  and  O_15
REMARK    2  A    between atoms: C_3  and  C_9
REMARK                            x       y       z     vdW  Elec       q    Type
REMARK                         _______ _______ _______ _____ _____    ______ ____
ROOT
ATOM      1  O   UNL     1     -67.023 -57.740 -34.904  0.00  0.00    +0.000 OA
ATOM      2  N   UNL     1     -68.443 -57.314 -33.091  0.00  0.00    +0.000 N 
ATOM      3  C   UNL     1     -69.724 -56.966 -32.639  0.00  0.00    +0.000 C 
ATOM      4  C   UNL     1     -70.532 -56.732 -33.642  0.00  0.00    +0.000 C 
ATOM      5  C   UNL     1     -70.460 -56.718 -35.066  0.00  0.00    +0.000 C 
ATOM      6  C   UNL     1     -68.108 -57.398 -34.454  0.00  0.00    +0.000 C 
ATOM      7  C   UNL     1     -69.228 -57.058 -35.300  0.00  0.00    +0.000 C 
ATOM      8  C   UNL     1     -71.123 -55.631 -35.845  0.00  0.00    +0.000 C 
ENDROOT
BRANCH   3   9
ATOM      9  C   UNL     1     -70.117 -56.887 -31.262  0.00  0.00    +0.000 A 
ATOM     10  C   UNL     1     -70.938 -57.875 -30.601  0.00  0.00    +0.000 A 
ATOM     11  C   UNL     1     -71.656 -57.831 -29.233  0.00  0.00    +0.000 A 
ATOM     12  C   UNL     1     -71.485 -56.535 -28.417  0.00  0.00    +0.000 A 
ATOM     13  C   UNL     1     -70.623 -55.420 -29.036  0.00  0.00    +0.000 A 
ATOM     14  C   UNL     1     -70.014 -55.719 -30.424  0.00  0.00    +0.000 A 
ENDBRANCH   3   9
BRANCH   2  15
ATOM     15  O   UNL     1     -67.465 -57.688 -32.149  0.00  0.00    +0.000 OA
ATOM     16  H   UNL     1     -67.222 -58.591 -32.442  0.00  0.00    +0.000 HD
ENDBRANCH   2  15
TORSDOF 2
ENDMDL
MODEL 3
REMARK VINA RESULT:      -4.8     14.987     17.562
REMARK  Name = Ciclopirox.pdbqt.pdb
REMARK  2 active torsions:
REMARK  status: ('A' for Active; 'I' for Inactive)
REMARK    1  A    between atoms: N_2  and  O_15
REMARK    2  A    between atoms: C_3  and  C_9
REMARK                            x       y       z     vdW  Elec       q    Type
REMARK                         _______ _______ _______ _____ _____    ______ ____
ROOT
ATOM      1  O   UNL     1     -62.714 -58.015 -46.871  0.00  0.00    +0.000 OA
ATOM      2  N   UNL     1     -61.572 -57.257 -48.770  0.00  0.00    +0.000 N 
ATOM      3  C   UNL     1     -61.429 -56.274 -49.759  0.00  0.00    +0.000 C 
ATOM      4  C   UNL     1     -62.338 -55.339 -49.632  0.00  0.00    +0.000 C 
ATOM      5  C   UNL     1     -63.442 -55.060 -48.775  0.00  0.00    +0.000 C 
ATOM      6  C   UNL     1     -62.571 -57.211 -47.781  0.00  0.00    +0.000 C 
ATOM      7  C   UNL     1     -63.422 -56.054 -47.939  0.00  0.00    +0.000 C 
ATOM      8  C   UNL     1     -64.726 -54.550 -49.339  0.00  0.00    +0.000 C 
ENDROOT
BRANCH   3   9
ATOM      9  C   UNL     1     -60.416 -56.269 -50.773  0.00  0.00    +0.000 A 
ATOM     10  C   UNL     1     -60.505 -57.017 -52.006  0.00  0.00    +0.000 A 
ATOM     11  C   UNL     1     -59.430 -57.329 -53.072  0.00  0.00    +0.000 A 
ATOM     12  C   UNL     1     -58.024 -56.761 -52.804  0.00  0.00    +0.000 A 
ATOM     13  C   UNL     1     -57.825 -55.945 -51.514  0.00  0.00    +0.000 A 
ATOM     14  C   UNL     1     -59.069 -55.779 -50.614  0.00  0.00    +0.000 A 
ENDBRANCH   3   9
BRANCH   2  15
ATOM     15  O   UNL     1     -60.624 -58.296 -48.698  0.00  0.00    +0.000 OA
ATOM     16  H   UNL     1     -60.488 -58.526 -49.640  0.00  0.00    +0.000 HD
ENDBRANCH   2  15
TORSDOF 2
ENDMDL
MODEL 4
REMARK VINA RESULT:      -4.7     30.912     33.408
REMARK  Name = Ciclopirox.pdbqt.pdb
REMARK  2 active torsions:
REMARK  status: ('A' for Active; 'I' for Inactive)
REMARK    1  A    between atoms: N_2  and  O_15
REMARK    2  A    between atoms: C_3  and  C_9
REMARK                            x       y       z     vdW  Elec       q    Type
REMARK                         _______ _______ _______ _____ _____    ______ ____
ROOT
ATOM      1  O   UNL     1     -66.862 -60.536 -33.369  0.00  0.00    +0.000 OA
ATOM      2  N   UNL     1     -67.704 -59.001 -34.924  0.00  0.00    +0.000 N 
ATOM      3  C   UNL     1     -68.322 -57.765 -35.161  0.00  0.00    +0.000 C 
ATOM      4  C   UNL     1     -68.609 -57.156 -34.038  0.00  0.00    +0.000 C 
ATOM      5  C   UNL     1     -68.481 -57.416 -32.642  0.00  0.00    +0.000 C 
ATOM      6  C   UNL     1     -67.437 -59.489 -33.633  0.00  0.00    +0.000 C 
ATOM      7  C   UNL     1     -67.900 -58.578 -32.612  0.00  0.00    +0.000 C 
ATOM      8  C   UNL     1     -69.596 -57.086 -31.707  0.00  0.00    +0.000 C 
ENDROOT
BRANCH   3   9
ATOM      9  C   UNL     1     -68.595 -57.218 -36.458  0.00  0.00    +0.000 A 
ATOM     10  C   UNL     1     -67.616 -56.528 -37.265  0.00  0.00    +0.000 A 
ATOM     11  C   UNL     1     -67.788 -55.670 -38.540  0.00  0.00    +0.000 A 
ATOM     12  C   UNL     1     -69.229 -55.509 -39.060  0.00  0.00    +0.000 A 
ATOM     13  C   UNL     1     -70.348 -56.210 -38.268  0.00  0.00    +0.000 A 
ATOM     14  C   UNL     1     -69.905 -57.011 -37.024  0.00  0.00    +0.000 A 
ENDBRANCH   3   9
BRANCH   2  15
ATOM     15  O   UNL     1     -67.243 -59.756 -36.021  0.00  0.00    +0.000 OA
ATOM     16  H   UNL     1     -67.974 -59.662 -36.665  0.00  0.00    +0.000 HD
ENDBRANCH   2  15
TORSDOF 2
ENDMDL
MODEL 5
REMARK VINA RESULT:      -4.6     29.912     31.736
REMARK  Name = Ciclopirox.pdbqt.pdb
REMARK  2 active torsions:
REMARK  status: ('A' for Active; 'I' for Inactive)
REMARK    1  A    between atoms: N_2  and  O_15
REMARK    2  A    between atoms: C_3  and  C_9
REMARK                            x       y       z     vdW  Elec       q    Type
REMARK                         _______ _______ _______ _____ _____    ______ ____
ROOT
ATOM      1  O   UNL     1     -67.210 -60.861 -36.515  0.00  0.00    +0.000 OA
ATOM      2  N   UNL     1     -67.842 -58.738 -37.274  0.00  0.00    +0.000 N 
ATOM      3  C   UNL     1     -68.020 -57.377 -36.989  0.00  0.00    +0.000 C 
ATOM      4  C   UNL     1     -67.752 -57.117 -35.733  0.00  0.00    +0.000 C 
ATOM      5  C   UNL     1     -67.349 -57.844 -34.576  0.00  0.00    +0.000 C 
ATOM      6  C   UNL     1     -67.424 -59.675 -36.312  0.00  0.00    +0.000 C 
ATOM      7  C   UNL     1     -67.234 -59.061 -35.018  0.00  0.00    +0.000 C 
ATOM      8  C   UNL     1     -67.971 -57.560 -33.249  0.00  0.00    +0.000 C 
ENDROOT
BRANCH   3   9
ATOM      9  C   UNL     1     -68.425 -56.383 -37.940  0.00  0.00    +0.000 A 
ATOM     10  C   UNL     1     -67.505 -55.522 -38.647  0.00  0.00    +0.000 A 
ATOM     11  C   UNL     1     -67.765 -54.255 -39.494  0.00  0.00    +0.000 A 
ATOM     12  C   UNL     1     -69.235 -53.815 -39.625  0.00  0.00    +0.000 A 
ATOM     13  C   UNL     1     -70.295 -54.671 -38.907  0.00  0.00    +0.000 A 
ATOM     14  C   UNL     1     -69.768 -55.894 -38.123  0.00  0.00    +0.000 A 
ENDBRANCH   3   9
BRANCH   2  15
ATOM     15  O   UNL     1     -67.999 -59.184 -38.601  0.00  0.00    +0.000 OA
ATOM     16  H   UNL     1     -67.763 -60.132 -38.535  0.00  0.00    +0.000 HD
ENDBRANCH   2  15
TORSDOF 2
ENDMDL
MODEL 6
REMARK VINA RESULT:      -4.6      8.230     11.292
REMARK  Name = Ciclopirox.pdbqt.pdb
REMARK  2 active torsions:
REMARK  status: ('A' for Active; 'I' for Inactive)
REMARK    1  A    between atoms: N_2  and  O_15
REMARK    2  A    between atoms: C_3  and  C_9
REMARK                            x       y       z     vdW  Elec       q    Type
REMARK                         _______ _______ _______ _____ _____    ______ ____
ROOT
ATOM      1  O   UNL     1     -57.667 -57.386 -58.780  0.00  0.00    +0.000 OA
ATOM      2  N   UNL     1     -59.854 -56.874 -58.115  0.00  0.00    +0.000 N 
ATOM      3  C   UNL     1     -61.043 -56.178 -58.373  0.00  0.00    +0.000 C 
ATOM      4  C   UNL     1     -60.935 -55.437 -59.448  0.00  0.00    +0.000 C 
ATOM      5  C   UNL     1     -59.932 -55.133 -60.414  0.00  0.00    +0.000 C 
ATOM      6  C   UNL     1     -58.713 -56.770 -58.931  0.00  0.00    +0.000 C 
ATOM      7  C   UNL     1     -58.922 -55.852 -60.026  0.00  0.00    +0.000 C 
ATOM      8  C   UNL     1     -59.745 -53.732 -60.894  0.00  0.00    +0.000 C 
ENDROOT
BRANCH   3   9
ATOM      9  C   UNL     1     -62.236 -56.267 -57.583  0.00  0.00    +0.000 A 
ATOM     10  C   UNL     1     -63.566 -56.362 -58.139  0.00  0.00    +0.000 A 
ATOM     11  C   UNL     1     -64.949 -56.213 -57.465  0.00  0.00    +0.000 A 
ATOM     12  C   UNL     1     -64.940 -55.914 -55.954  0.00  0.00    +0.000 A 
ATOM     13  C   UNL     1     -63.568 -55.795 -55.266  0.00  0.00    +0.000 A 
ATOM     14  C   UNL     1     -62.332 -55.990 -56.171  0.00  0.00    +0.000 A 
ENDBRANCH   3   9
BRANCH   2  15
ATOM     15  O   UNL     1     -59.817 -57.790 -57.047  0.00  0.00    +0.000 OA
ATOM     16  H   UNL     1     -59.844 -58.654 -57.507  0.00  0.00    +0.000 HD
ENDBRANCH   2  15
TORSDOF 2
ENDMDL
MODEL 7
REMARK VINA RESULT:      -4.6      7.728     10.741
REMARK  Name = Ciclopirox.pdbqt.pdb
REMARK  2 active torsions:
REMARK  status: ('A' for Active; 'I' for Inactive)
REMARK    1  A    between atoms: N_2  and  O_15
REMARK    2  A    between atoms: C_3  and  C_9
REMARK                            x       y       z     vdW  Elec       q    Type
REMARK                         _______ _______ _______ _____ _____    ______ ____
ROOT
ATOM      1  O   UNL     1     -59.766 -58.444 -61.007  0.00  0.00    +0.000 OA
ATOM      2  N   UNL     1     -59.528 -57.593 -58.839  0.00  0.00    +0.000 N 
ATOM      3  C   UNL     1     -59.603 -56.487 -57.980  0.00  0.00    +0.000 C 
ATOM      4  C   UNL     1     -59.921 -55.399 -58.635  0.00  0.00    +0.000 C 
ATOM      5  C   UNL     1     -60.191 -55.030 -59.985  0.00  0.00    +0.000 C 
ATOM      6  C   UNL     1     -59.774 -57.507 -60.221  0.00  0.00    +0.000 C 
ATOM      7  C   UNL     1     -60.080 -56.155 -60.625  0.00  0.00    +0.000 C 
ATOM      8  C   UNL     1     -59.638 -53.763 -60.548  0.00  0.00    +0.000 C 
ENDROOT
BRANCH   3   9
ATOM      9  C   UNL     1     -59.381 -56.530 -56.564  0.00  0.00    +0.000 A 
ATOM     10  C   UNL     1     -58.075 -56.455 -55.950  0.00  0.00    +0.000 A 
ATOM     11  C   UNL     1     -57.631 -56.734 -54.496  0.00  0.00    +0.000 A 
ATOM     12  C   UNL     1     -58.741 -57.164 -53.518  0.00  0.00    +0.000 A 
ATOM     13  C   UNL     1     -60.172 -57.272 -54.076  0.00  0.00    +0.000 A 
ATOM     14  C   UNL     1     -60.347 -56.935 -55.573  0.00  0.00    +0.000 A 
ENDBRANCH   3   9
BRANCH   2  15
ATOM     15  O   UNL     1     -59.286 -58.868 -58.292  0.00  0.00    +0.000 OA
ATOM     16  H   UNL     1     -59.705 -59.463 -58.947  0.00  0.00    +0.000 HD
ENDBRANCH   2  15
TORSDOF 2
ENDMDL
MODEL 8
REMARK VINA RESULT:      -4.5     23.215     26.489
REMARK  Name = Ciclopirox.pdbqt.pdb
REMARK  2 active torsions:
REMARK  status: ('A' for Active; 'I' for Inactive)
REMARK    1  A    between atoms: N_2  and  O_15
REMARK    2  A    between atoms: C_3  and  C_9
REMARK                            x       y       z     vdW  Elec       q    Type
REMARK                         _______ _______ _______ _____ _____    ______ ____
ROOT
ATOM      1  O   UNL     1     -62.490 -57.318 -43.978  0.00  0.00    +0.000 OA
ATOM      2  N   UNL     1     -64.386 -56.670 -42.767  0.00  0.00    +0.000 N 
ATOM      3  C   UNL     1     -65.783 -56.562 -42.712  0.00  0.00    +0.000 C 
ATOM      4  C   UNL     1     -66.334 -56.965 -43.829  0.00  0.00    +0.000 C 
ATOM      5  C   UNL     1     -65.899 -57.466 -45.091  0.00  0.00    +0.000 C 
ATOM      6  C   UNL     1     -63.699 -57.160 -43.892  0.00  0.00    +0.000 C 
ATOM      7  C   UNL     1     -64.606 -57.500 -44.963  0.00  0.00    +0.000 C 
ATOM      8  C   UNL     1     -66.539 -56.994 -46.354  0.00  0.00    +0.000 C 
ENDROOT
BRANCH   3   9
ATOM      9  C   UNL     1     -66.527 -56.088 -41.581  0.00  0.00    +0.000 A 
ATOM     10  C   UNL     1     -66.565 -54.705 -41.163  0.00  0.00    +0.000 A 
ATOM     11  C   UNL     1     -67.089 -54.065 -39.858  0.00  0.00    +0.000 A 
ATOM     12  C   UNL     1     -67.673 -55.034 -38.813  0.00  0.00    +0.000 A 
ATOM     13  C   UNL     1     -67.680 -56.533 -39.165  0.00  0.00    +0.000 A 
ATOM     14  C   UNL     1     -67.095 -56.912 -40.544  0.00  0.00    +0.000 A 
ENDBRANCH   3   9
BRANCH   2  15
ATOM     15  O   UNL     1     -63.631 -56.364 -41.618  0.00  0.00    +0.000 OA
ATOM     16  H   UNL     1     -62.759 -56.758 -41.825  0.00  0.00    +0.000 HD
ENDBRANCH   2  15
TORSDOF 2
ENDMDL
MODEL 9
REMARK VINA RESULT:      -4.5      1.728      2.821
REMARK  Name = Ciclopirox.pdbqt.pdb
REMARK  2 active torsions:
REMARK  status: ('A' for Active; 'I' for Inactive)
REMARK    1  A    between atoms: N_2  and  O_15
REMARK    2  A    between atoms: C_3  and  C_9
REMARK                            x       y       z     vdW  Elec       q    Type
REMARK                         _______ _______ _______ _____ _____    ______ ____
ROOT
ATOM      1  O   UNL     1     -56.726 -58.880 -62.629  0.00  0.00    +0.000 OA
ATOM      2  N   UNL     1     -56.151 -58.816 -64.898  0.00  0.00    +0.000 N 
ATOM      3  C   UNL     1     -56.503 -59.108 -66.224  0.00  0.00    +0.000 C 
ATOM      4  C   UNL     1     -57.658 -59.722 -66.283  0.00  0.00    +0.000 C 
ATOM      5  C   UNL     1     -58.644 -60.190 -65.366  0.00  0.00    +0.000 C 
ATOM      6  C   UNL     1     -56.962 -59.149 -63.799  0.00  0.00    +0.000 C 
ATOM      7  C   UNL     1     -58.162 -59.839 -64.211  0.00  0.00    +0.000 C 
ATOM      8  C   UNL     1     -59.287 -61.523 -65.562  0.00  0.00    +0.000 C 
ENDROOT
BRANCH   3   9
ATOM      9  C   UNL     1     -55.719 -58.771 -67.376  0.00  0.00    +0.000 A 
ATOM     10  C   UNL     1     -56.022 -57.672 -68.264  0.00  0.00    +0.000 A 
ATOM     11  C   UNL     1     -55.457 -57.322 -69.659  0.00  0.00    +0.000 A 
ATOM     12  C   UNL     1     -54.393 -58.284 -70.221  0.00  0.00    +0.000 A 
ATOM     13  C   UNL     1     -53.998 -59.488 -69.348  0.00  0.00    +0.000 A 
ATOM     14  C   UNL     1     -54.717 -59.608 -67.985  0.00  0.00    +0.000 A 
ENDBRANCH   3   9
BRANCH   2  15
ATOM     15  O   UNL     1     -54.979 -58.075 -64.650  0.00  0.00    +0.000 OA
ATOM     16  H   UNL     1     -55.248 -57.493 -63.911  0.00  0.00    +0.000 HD
ENDBRANCH   2  15
TORSDOF 2
ENDMDL
