MODEL 1
REMARK VINA RESULT:      -6.1      0.000      0.000
REMARK  Name = 
REMARK  5 active torsions:
REMARK  status: ('A' for Active; 'I' for Inactive)
REMARK    1  A    between atoms: O_5  and  C_10
REMARK    2  A    between atoms: N_9  and  C_20
REMARK    3  A    between atoms: N_9  and  C_25
REMARK    4  A    between atoms: C_10  and  C_11
REMARK    5  A    between atoms: C_18  and  C_19
REMARK                            x       y       z     vdW  Elec       q    Type
REMARK                         _______ _______ _______ _____ _____    ______ ____
ROOT
ATOM      1  F   UNL     1     -67.053 -59.661 -35.528  0.00  0.00    +0.000 F 
ATOM      2  F   UNL     1     -67.120 -61.481 -37.522  0.00  0.00    +0.000 F 
ATOM      3  C   UNL     1     -68.576 -57.699 -38.188  0.00  0.00    +0.000 A 
ATOM      4  C   UNL     1     -68.057 -58.000 -36.909  0.00  0.00    +0.000 A 
ATOM      5  C   UNL     1     -68.594 -58.648 -39.225  0.00  0.00    +0.000 A 
ATOM      6  C   UNL     1     -67.576 -59.302 -36.711  0.00  0.00    +0.000 A 
ATOM      7  C   UNL     1     -68.099 -59.928 -38.994  0.00  0.00    +0.000 A 
ATOM      8  C   UNL     1     -67.594 -60.245 -37.739  0.00  0.00    +0.000 A 
ENDROOT
BRANCH   3  14
ATOM      9  O   UNL     1     -70.348 -56.198 -38.415  0.00  0.00    +0.000 OA
ATOM     10  N   UNL     1     -68.233 -55.360 -38.762  0.00  0.00    +0.000 N 
ATOM     11  C   UNL     1     -67.538 -54.422 -40.493  0.00  0.00    +0.000 C 
ATOM     12  C   UNL     1     -66.977 -55.481 -39.501  0.00  0.00    +0.000 C 
ATOM     13  C   UNL     1     -68.572 -54.078 -39.379  0.00  0.00    +0.000 C 
ATOM     14  C   UNL     1     -69.132 -56.353 -38.446  0.00  0.00    +0.000 C 
BRANCH  11  16
ATOM     15  N   UNL     1     -68.996 -53.865 -42.420  0.00  0.00    +0.000 NA
ATOM     16  C   UNL     1     -68.215 -54.956 -41.783  0.00  0.00    +0.000 C 
ATOM     17  C   UNL     1     -67.177 -55.488 -42.787  0.00  0.00    +0.000 C 
ATOM     18  C   UNL     1     -67.856 -55.986 -44.064  0.00  0.00    +0.000 C 
ATOM     19  C   UNL     1     -69.743 -54.387 -43.574  0.00  0.00    +0.000 C 
ATOM     20  C   UNL     1     -68.794 -54.932 -44.641  0.00  0.00    +0.000 C 
ATOM     21  H   UNL     1     -68.332 -53.176 -42.783  0.00  0.00    +0.000 HD
ENDBRANCH  11  16
BRANCH  11  22
ATOM     22  O   UNL     1     -66.616 -53.342 -40.821  0.00  0.00    +0.000 OA
ATOM     23  H   UNL     1     -67.083 -52.864 -41.533  0.00  0.00    +0.000 HD
ENDBRANCH  11  22
ENDBRANCH   3  14
BRANCH   4  24
ATOM     24  N   UNL     1     -68.118 -57.036 -35.880  0.00  0.00    +0.000 N 
ATOM     25  H   UNL     1     -67.808 -56.102 -36.174  0.00  0.00    +0.000 HD
BRANCH  24  28
ATOM     26  I   UNL     1     -71.010 -56.891 -30.284  0.00  0.00    +0.000 I 
ATOM     27  F   UNL     1     -70.577 -55.880 -35.531  0.00  0.00    +0.000 F 
ATOM     28  C   UNL     1     -68.724 -57.039 -34.610  0.00  0.00    +0.000 A 
ATOM     29  C   UNL     1     -69.980 -56.423 -34.458  0.00  0.00    +0.000 A 
ATOM     30  C   UNL     1     -68.139 -57.595 -33.469  0.00  0.00    +0.000 A 
ATOM     31  C   UNL     1     -70.643 -56.371 -33.235  0.00  0.00    +0.000 A 
ATOM     32  C   UNL     1     -68.792 -57.550 -32.229  0.00  0.00    +0.000 A 
ATOM     33  C   UNL     1     -70.041 -56.941 -32.119  0.00  0.00    +0.000 A 
ENDBRANCH  24  28
ENDBRANCH   4  24
TORSDOF 5
ENDMDL
MODEL 2
REMARK VINA RESULT:      -5.9     22.845     24.555
REMARK  Name = 
REMARK  5 active torsions:
REMARK  status: ('A' for Active; 'I' for Inactive)
REMARK    1  A    between atoms: O_5  and  C_10
REMARK    2  A    between atoms: N_9  and  C_20
REMARK    3  A    between atoms: N_9  and  C_25
REMARK    4  A    between atoms: C_10  and  C_11
REMARK    5  A    between atoms: C_18  and  C_19
REMARK                            x       y       z     vdW  Elec       q    Type
REMARK                         _______ _______ _______ _____ _____    ______ ____
ROOT
ATOM      1  F   UNL     1     -64.420 -47.420 -61.229  0.00  0.00    +0.000 F 
ATOM      2  F   UNL     1     -61.778 -47.375 -61.781  0.00  0.00    +0.000 F 
ATOM      3  C   UNL     1     -63.083 -46.255 -58.052  0.00  0.00    +0.000 A 
ATOM      4  C   UNL     1     -64.046 -46.650 -59.007  0.00  0.00    +0.000 A 
ATOM      5  C   UNL     1     -61.708 -46.249 -58.342  0.00  0.00    +0.000 A 
ATOM      6  C   UNL     1     -63.570 -47.018 -60.273  0.00  0.00    +0.000 A 
ATOM      7  C   UNL     1     -61.270 -46.630 -59.607  0.00  0.00    +0.000 A 
ATOM      8  C   UNL     1     -62.205 -47.011 -60.562  0.00  0.00    +0.000 A 
ENDROOT
BRANCH   3  14
ATOM      9  O   UNL     1     -63.924 -46.666 -55.913  0.00  0.00    +0.000 OA
ATOM     10  N   UNL     1     -63.522 -44.467 -56.462  0.00  0.00    +0.000 N 
ATOM     11  C   UNL     1     -64.912 -42.910 -56.443  0.00  0.00    +0.000 C 
ATOM     12  C   UNL     1     -63.778 -43.376 -57.400  0.00  0.00    +0.000 C 
ATOM     13  C   UNL     1     -64.229 -43.805 -55.366  0.00  0.00    +0.000 C 
ATOM     14  C   UNL     1     -63.529 -45.821 -56.710  0.00  0.00    +0.000 C 
BRANCH  11  16
ATOM     15  N   UNL     1     -67.076 -43.689 -55.517  0.00  0.00    +0.000 NA
ATOM     16  C   UNL     1     -66.352 -43.381 -56.777  0.00  0.00    +0.000 C 
ATOM     17  C   UNL     1     -67.131 -42.307 -57.558  0.00  0.00    +0.000 C 
ATOM     18  C   UNL     1     -68.556 -42.774 -57.856  0.00  0.00    +0.000 C 
ATOM     19  C   UNL     1     -68.398 -44.255 -55.822  0.00  0.00    +0.000 C 
ATOM     20  C   UNL     1     -69.259 -43.254 -56.591  0.00  0.00    +0.000 C 
ATOM     21  H   UNL     1     -67.236 -42.807 -55.023  0.00  0.00    +0.000 HD
ENDBRANCH  11  16
BRANCH  11  22
ATOM     22  O   UNL     1     -64.909 -41.484 -56.139  0.00  0.00    +0.000 OA
ATOM     23  H   UNL     1     -64.073 -41.176 -56.537  0.00  0.00    +0.000 HD
ENDBRANCH  11  22
ENDBRANCH   3  14
BRANCH   4  24
ATOM     24  N   UNL     1     -65.421 -46.581 -58.691  0.00  0.00    +0.000 N 
ATOM     25  H   UNL     1     -65.611 -46.601 -57.682  0.00  0.00    +0.000 HD
BRANCH  24  28
ATOM     26  I   UNL     1     -70.419 -44.925 -62.152  0.00  0.00    +0.000 I 
ATOM     27  F   UNL     1     -65.562 -44.183 -60.007  0.00  0.00    +0.000 F 
ATOM     28  C   UNL     1     -66.557 -46.264 -59.458  0.00  0.00    +0.000 A 
ATOM     29  C   UNL     1     -66.608 -45.018 -60.110  0.00  0.00    +0.000 A 
ATOM     30  C   UNL     1     -67.665 -47.105 -59.593  0.00  0.00    +0.000 A 
ATOM     31  C   UNL     1     -67.699 -44.621 -60.878  0.00  0.00    +0.000 A 
ATOM     32  C   UNL     1     -68.772 -46.721 -60.362  0.00  0.00    +0.000 A 
ATOM     33  C   UNL     1     -68.783 -45.482 -61.002  0.00  0.00    +0.000 A 
ENDBRANCH  24  28
ENDBRANCH   4  24
TORSDOF 5
ENDMDL
MODEL 3
REMARK VINA RESULT:      -5.9      6.423     12.230
REMARK  Name = 
REMARK  5 active torsions:
REMARK  status: ('A' for Active; 'I' for Inactive)
REMARK    1  A    between atoms: O_5  and  C_10
REMARK    2  A    between atoms: N_9  and  C_20
REMARK    3  A    between atoms: N_9  and  C_25
REMARK    4  A    between atoms: C_10  and  C_11
REMARK    5  A    between atoms: C_18  and  C_19
REMARK                            x       y       z     vdW  Elec       q    Type
REMARK                         _______ _______ _______ _____ _____    ______ ____
ROOT
ATOM      1  F   UNL     1     -69.471 -53.741 -30.996  0.00  0.00    +0.000 F 
ATOM      2  F   UNL     1     -71.141 -51.986 -29.805  0.00  0.00    +0.000 F 
ATOM      3  C   UNL     1     -71.898 -56.011 -29.512  0.00  0.00    +0.000 A 
ATOM      4  C   UNL     1     -70.763 -55.595 -30.244  0.00  0.00    +0.000 A 
ATOM      5  C   UNL     1     -72.754 -55.092 -28.883  0.00  0.00    +0.000 A 
ATOM      6  C   UNL     1     -70.537 -54.215 -30.332  0.00  0.00    +0.000 A 
ATOM      7  C   UNL     1     -72.493 -53.728 -28.984  0.00  0.00    +0.000 A 
ATOM      8  C   UNL     1     -71.386 -53.300 -29.708  0.00  0.00    +0.000 A 
ENDROOT
BRANCH   3  14
ATOM      9  O   UNL     1     -72.960 -57.956 -30.245  0.00  0.00    +0.000 OA
ATOM     10  N   UNL     1     -71.667 -58.136 -28.349  0.00  0.00    +0.000 N 
ATOM     11  C   UNL     1     -72.302 -58.789 -26.472  0.00  0.00    +0.000 C 
ATOM     12  C   UNL     1     -71.401 -57.638 -27.001  0.00  0.00    +0.000 C 
ATOM     13  C   UNL     1     -72.108 -59.445 -27.871  0.00  0.00    +0.000 C 
ATOM     14  C   UNL     1     -72.208 -57.454 -29.416  0.00  0.00    +0.000 C 
BRANCH  11  16
ATOM     15  N   UNL     1     -74.350 -59.436 -25.230  0.00  0.00    +0.000 NA
ATOM     16  C   UNL     1     -73.787 -58.443 -26.181  0.00  0.00    +0.000 C 
ATOM     17  C   UNL     1     -73.932 -57.032 -25.585  0.00  0.00    +0.000 C 
ATOM     18  C   UNL     1     -75.397 -56.715 -25.280  0.00  0.00    +0.000 C 
ATOM     19  C   UNL     1     -75.787 -59.194 -25.043  0.00  0.00    +0.000 C 
ATOM     20  C   UNL     1     -76.039 -57.814 -24.439  0.00  0.00    +0.000 C 
ATOM     21  H   UNL     1     -73.902 -59.287 -24.322  0.00  0.00    +0.000 HD
ENDBRANCH  11  16
BRANCH  11  22
ATOM     22  O   UNL     1     -71.739 -59.547 -25.361  0.00  0.00    +0.000 OA
ATOM     23  H   UNL     1     -71.167 -58.893 -24.917  0.00  0.00    +0.000 HD
ENDBRANCH  11  22
ENDBRANCH   3  14
BRANCH   4  24
ATOM     24  N   UNL     1     -69.967 -56.551 -30.912  0.00  0.00    +0.000 N 
ATOM     25  H   UNL     1     -69.700 -57.347 -30.322  0.00  0.00    +0.000 HD
BRANCH  24  28
ATOM     26  I   UNL     1     -68.349 -57.506 -36.927  0.00  0.00    +0.000 I 
ATOM     27  F   UNL     1     -67.671 -57.866 -31.620  0.00  0.00    +0.000 F 
ATOM     28  C   UNL     1     -69.657 -56.746 -32.271  0.00  0.00    +0.000 A 
ATOM     29  C   UNL     1     -68.463 -57.411 -32.605  0.00  0.00    +0.000 A 
ATOM     30  C   UNL     1     -70.454 -56.290 -33.324  0.00  0.00    +0.000 A 
ATOM     31  C   UNL     1     -68.075 -57.633 -33.923  0.00  0.00    +0.000 A 
ATOM     32  C   UNL     1     -70.078 -56.504 -34.658  0.00  0.00    +0.000 A 
ATOM     33  C   UNL     1     -68.892 -57.177 -34.950  0.00  0.00    +0.000 A 
ENDBRANCH  24  28
ENDBRANCH   4  24
TORSDOF 5
ENDMDL
MODEL 4
REMARK VINA RESULT:      -5.8     30.684     35.505
REMARK  Name = 
REMARK  5 active torsions:
REMARK  status: ('A' for Active; 'I' for Inactive)
REMARK    1  A    between atoms: O_5  and  C_10
REMARK    2  A    between atoms: N_9  and  C_20
REMARK    3  A    between atoms: N_9  and  C_25
REMARK    4  A    between atoms: C_10  and  C_11
REMARK    5  A    between atoms: C_18  and  C_19
REMARK                            x       y       z     vdW  Elec       q    Type
REMARK                         _______ _______ _______ _____ _____    ______ ____
ROOT
ATOM      1  F   UNL     1     -64.740 -63.627 -73.839  0.00  0.00    +0.000 F 
ATOM      2  F   UNL     1     -63.390 -63.810 -71.508  0.00  0.00    +0.000 F 
ATOM      3  C   UNL     1     -66.255 -60.903 -71.962  0.00  0.00    +0.000 A 
ATOM      4  C   UNL     1     -66.010 -61.775 -73.046  0.00  0.00    +0.000 A 
ATOM      5  C   UNL     1     -65.559 -61.014 -70.746  0.00  0.00    +0.000 A 
ATOM      6  C   UNL     1     -65.020 -62.751 -72.863  0.00  0.00    +0.000 A 
ATOM      7  C   UNL     1     -64.589 -62.002 -70.597  0.00  0.00    +0.000 A 
ATOM      8  C   UNL     1     -64.328 -62.862 -71.656  0.00  0.00    +0.000 A 
ENDROOT
BRANCH   3  14
ATOM      9  O   UNL     1     -66.879 -58.672 -72.242  0.00  0.00    +0.000 OA
ATOM     10  N   UNL     1     -68.585 -60.204 -72.031  0.00  0.00    +0.000 N 
ATOM     11  C   UNL     1     -70.093 -60.190 -70.589  0.00  0.00    +0.000 C 
ATOM     12  C   UNL     1     -69.174 -61.271 -71.225  0.00  0.00    +0.000 C 
ATOM     13  C   UNL     1     -69.707 -59.295 -71.805  0.00  0.00    +0.000 C 
ATOM     14  C   UNL     1     -67.262 -59.830 -72.109  0.00  0.00    +0.000 C 
BRANCH  11  16
ATOM     15  N   UNL     1     -70.759 -58.832 -68.623  0.00  0.00    +0.000 NA
ATOM     16  C   UNL     1     -69.633 -59.581 -69.237  0.00  0.00    +0.000 C 
ATOM     17  C   UNL     1     -69.157 -60.670 -68.260  0.00  0.00    +0.000 C 
ATOM     18  C   UNL     1     -68.732 -60.059 -66.924  0.00  0.00    +0.000 C 
ATOM     19  C   UNL     1     -70.302 -58.147 -67.405  0.00  0.00    +0.000 C 
ATOM     20  C   UNL     1     -69.817 -59.150 -66.360  0.00  0.00    +0.000 C 
ATOM     21  H   UNL     1     -71.467 -59.512 -68.334  0.00  0.00    +0.000 HD
ENDBRANCH  11  16
BRANCH  11  22
ATOM     22  O   UNL     1     -71.505 -60.548 -70.521  0.00  0.00    +0.000 OA
ATOM     23  H   UNL     1     -71.952 -59.681 -70.536  0.00  0.00    +0.000 HD
ENDBRANCH  11  22
ENDBRANCH   3  14
BRANCH   4  24
ATOM     24  N   UNL     1     -66.689 -61.586 -74.269  0.00  0.00    +0.000 N 
ATOM     25  H   UNL     1     -67.665 -61.903 -74.250  0.00  0.00    +0.000 HD
BRANCH  24  28
ATOM     26  I   UNL     1     -65.505 -58.203 -79.451  0.00  0.00    +0.000 I 
ATOM     27  F   UNL     1     -68.406 -59.658 -75.183  0.00  0.00    +0.000 F 
ATOM     28  C   UNL     1     -66.372 -60.852 -75.427  0.00  0.00    +0.000 A 
ATOM     29  C   UNL     1     -67.281 -59.879 -75.882  0.00  0.00    +0.000 A 
ATOM     30  C   UNL     1     -65.212 -61.050 -76.181  0.00  0.00    +0.000 A 
ATOM     31  C   UNL     1     -67.051 -59.119 -77.025  0.00  0.00    +0.000 A 
ATOM     32  C   UNL     1     -64.965 -60.294 -77.335  0.00  0.00    +0.000 A 
ATOM     33  C   UNL     1     -65.884 -59.330 -77.750  0.00  0.00    +0.000 A 
ENDBRANCH  24  28
ENDBRANCH   4  24
TORSDOF 5
ENDMDL
MODEL 5
REMARK VINA RESULT:      -5.8      6.223      9.212
REMARK  Name = 
REMARK  5 active torsions:
REMARK  status: ('A' for Active; 'I' for Inactive)
REMARK    1  A    between atoms: O_5  and  C_10
REMARK    2  A    between atoms: N_9  and  C_20
REMARK    3  A    between atoms: N_9  and  C_25
REMARK    4  A    between atoms: C_10  and  C_11
REMARK    5  A    between atoms: C_18  and  C_19
REMARK                            x       y       z     vdW  Elec       q    Type
REMARK                         _______ _______ _______ _____ _____    ______ ____
ROOT
ATOM      1  F   UNL     1     -69.510 -54.020 -30.719  0.00  0.00    +0.000 F 
ATOM      2  F   UNL     1     -71.273 -52.414 -29.454  0.00  0.00    +0.000 F 
ATOM      3  C   UNL     1     -72.021 -56.445 -29.689  0.00  0.00    +0.000 A 
ATOM      4  C   UNL     1     -70.839 -55.948 -30.284  0.00  0.00    +0.000 A 
ATOM      5  C   UNL     1     -72.927 -55.604 -29.020  0.00  0.00    +0.000 A 
ATOM      6  C   UNL     1     -70.617 -54.567 -30.194  0.00  0.00    +0.000 A 
ATOM      7  C   UNL     1     -72.668 -54.238 -28.942  0.00  0.00    +0.000 A 
ATOM      8  C   UNL     1     -71.515 -53.731 -29.529  0.00  0.00    +0.000 A 
ENDROOT
BRANCH   3  14
ATOM      9  O   UNL     1     -71.590 -58.690 -29.221  0.00  0.00    +0.000 OA
ATOM     10  N   UNL     1     -73.410 -58.244 -30.558  0.00  0.00    +0.000 N 
ATOM     11  C   UNL     1     -73.736 -58.963 -32.490  0.00  0.00    +0.000 C 
ATOM     12  C   UNL     1     -73.904 -57.594 -31.771  0.00  0.00    +0.000 C 
ATOM     13  C   UNL     1     -73.681 -59.588 -31.064  0.00  0.00    +0.000 C 
ATOM     14  C   UNL     1     -72.328 -57.888 -29.784  0.00  0.00    +0.000 C 
BRANCH  11  16
ATOM     15  N   UNL     1     -71.713 -60.373 -32.747  0.00  0.00    +0.000 NA
ATOM     16  C   UNL     1     -72.421 -59.183 -33.284  0.00  0.00    +0.000 C 
ATOM     17  C   UNL     1     -72.694 -59.391 -34.784  0.00  0.00    +0.000 C 
ATOM     18  C   UNL     1     -71.392 -59.634 -35.549  0.00  0.00    +0.000 C 
ATOM     19  C   UNL     1     -70.407 -60.521 -33.405  0.00  0.00    +0.000 C 
ATOM     20  C   UNL     1     -70.571 -60.746 -34.907  0.00  0.00    +0.000 C 
ATOM     21  H   UNL     1     -72.263 -61.201 -32.989  0.00  0.00    +0.000 HD
ENDBRANCH  11  16
BRANCH  11  22
ATOM     22  O   UNL     1     -74.881 -59.377 -33.292  0.00  0.00    +0.000 OA
ATOM     23  H   UNL     1     -74.791 -60.349 -33.317  0.00  0.00    +0.000 HD
ENDBRANCH  11  22
ENDBRANCH   3  14
BRANCH   4  24
ATOM     24  N   UNL     1     -69.991 -56.820 -31.000  0.00  0.00    +0.000 N 
ATOM     25  H   UNL     1     -69.709 -57.649 -30.465  0.00  0.00    +0.000 HD
BRANCH  24  28
ATOM     26  I   UNL     1     -68.193 -57.258 -37.023  0.00  0.00    +0.000 I 
ATOM     27  F   UNL     1     -67.653 -58.036 -31.746  0.00  0.00    +0.000 F 
ATOM     28  C   UNL     1     -69.641 -56.899 -32.361  0.00  0.00    +0.000 A 
ATOM     29  C   UNL     1     -68.426 -57.516 -32.713  0.00  0.00    +0.000 A 
ATOM     30  C   UNL     1     -70.417 -56.372 -33.397  0.00  0.00    +0.000 A 
ATOM     31  C   UNL     1     -67.999 -57.624 -34.033  0.00  0.00    +0.000 A 
ATOM     32  C   UNL     1     -70.001 -56.472 -34.731  0.00  0.00    +0.000 A 
ATOM     33  C   UNL     1     -68.796 -57.100 -35.043  0.00  0.00    +0.000 A 
ENDBRANCH  24  28
ENDBRANCH   4  24
TORSDOF 5
ENDMDL
MODEL 6
REMARK VINA RESULT:      -5.8      5.017      6.699
REMARK  Name = 
REMARK  5 active torsions:
REMARK  status: ('A' for Active; 'I' for Inactive)
REMARK    1  A    between atoms: O_5  and  C_10
REMARK    2  A    between atoms: N_9  and  C_20
REMARK    3  A    between atoms: N_9  and  C_25
REMARK    4  A    between atoms: C_10  and  C_11
REMARK    5  A    between atoms: C_18  and  C_19
REMARK                            x       y       z     vdW  Elec       q    Type
REMARK                         _______ _______ _______ _____ _____    ______ ____
ROOT
ATOM      1  F   UNL     1     -71.942 -54.717 -33.267  0.00  0.00    +0.000 F 
ATOM      2  F   UNL     1     -72.658 -54.601 -35.867  0.00  0.00    +0.000 F 
ATOM      3  C   UNL     1     -69.433 -56.890 -34.760  0.00  0.00    +0.000 A 
ATOM      4  C   UNL     1     -70.129 -56.184 -33.754  0.00  0.00    +0.000 A 
ATOM      5  C   UNL     1     -69.821 -56.836 -36.110  0.00  0.00    +0.000 A 
ATOM      6  C   UNL     1     -71.219 -55.404 -34.165  0.00  0.00    +0.000 A 
ATOM      7  C   UNL     1     -70.915 -56.059 -36.480  0.00  0.00    +0.000 A 
ATOM      8  C   UNL     1     -71.606 -55.350 -35.505  0.00  0.00    +0.000 A 
ENDROOT
BRANCH   3  14
ATOM      9  O   UNL     1     -67.132 -57.243 -34.600  0.00  0.00    +0.000 OA
ATOM     10  N   UNL     1     -68.493 -58.955 -33.881  0.00  0.00    +0.000 N 
ATOM     11  C   UNL     1     -68.497 -60.917 -34.591  0.00  0.00    +0.000 C 
ATOM     12  C   UNL     1     -69.583 -59.870 -34.215  0.00  0.00    +0.000 C 
ATOM     13  C   UNL     1     -67.507 -60.029 -33.780  0.00  0.00    +0.000 C 
ATOM     14  C   UNL     1     -68.251 -57.699 -34.392  0.00  0.00    +0.000 C 
BRANCH  11  16
ATOM     15  N   UNL     1     -67.641 -62.398 -36.388  0.00  0.00    +0.000 NA
ATOM     16  C   UNL     1     -68.108 -61.019 -36.090  0.00  0.00    +0.000 C 
ATOM     17  C   UNL     1     -69.296 -60.679 -37.007  0.00  0.00    +0.000 C 
ATOM     18  C   UNL     1     -68.906 -60.809 -38.480  0.00  0.00    +0.000 C 
ATOM     19  C   UNL     1     -67.152 -62.476 -37.772  0.00  0.00    +0.000 C 
ATOM     20  C   UNL     1     -68.269 -62.164 -38.767  0.00  0.00    +0.000 C 
ATOM     21  H   UNL     1     -68.449 -63.023 -36.322  0.00  0.00    +0.000 HD
ENDBRANCH  11  16
BRANCH  11  22
ATOM     22  O   UNL     1     -68.713 -62.249 -34.039  0.00  0.00    +0.000 OA
ATOM     23  H   UNL     1     -69.526 -62.545 -34.490  0.00  0.00    +0.000 HD
ENDBRANCH  11  22
ENDBRANCH   3  14
BRANCH   4  24
ATOM     24  N   UNL     1     -69.665 -56.217 -32.421  0.00  0.00    +0.000 N 
ATOM     25  H   UNL     1     -68.772 -55.730 -32.285  0.00  0.00    +0.000 HD
BRANCH  24  28
ATOM     26  I   UNL     1     -72.322 -57.648 -26.889  0.00  0.00    +0.000 I 
ATOM     27  F   UNL     1     -69.647 -54.489 -30.296  0.00  0.00    +0.000 F 
ATOM     28  C   UNL     1     -70.281 -56.583 -31.209  0.00  0.00    +0.000 A 
ATOM     29  C   UNL     1     -70.242 -55.681 -30.131  0.00  0.00    +0.000 A 
ATOM     30  C   UNL     1     -70.913 -57.811 -30.997  0.00  0.00    +0.000 A 
ATOM     31  C   UNL     1     -70.816 -55.969 -28.895  0.00  0.00    +0.000 A 
ATOM     32  C   UNL     1     -71.494 -58.118 -29.759  0.00  0.00    +0.000 A 
ATOM     33  C   UNL     1     -71.445 -57.195 -28.715  0.00  0.00    +0.000 A 
ENDBRANCH  24  28
ENDBRANCH   4  24
TORSDOF 5
ENDMDL
MODEL 7
REMARK VINA RESULT:      -5.8     41.114     42.501
REMARK  Name = 
REMARK  5 active torsions:
REMARK  status: ('A' for Active; 'I' for Inactive)
REMARK    1  A    between atoms: O_5  and  C_10
REMARK    2  A    between atoms: N_9  and  C_20
REMARK    3  A    between atoms: N_9  and  C_25
REMARK    4  A    between atoms: C_10  and  C_11
REMARK    5  A    between atoms: C_18  and  C_19
REMARK                            x       y       z     vdW  Elec       q    Type
REMARK                         _______ _______ _______ _____ _____    ______ ____
ROOT
ATOM      1  F   UNL     1     -54.085 -49.483 -78.230  0.00  0.00    +0.000 F 
ATOM      2  F   UNL     1     -53.968 -51.550 -79.963  0.00  0.00    +0.000 F 
ATOM      3  C   UNL     1     -57.457 -50.816 -77.926  0.00  0.00    +0.000 A 
ATOM      4  C   UNL     1     -56.352 -49.969 -77.687  0.00  0.00    +0.000 A 
ATOM      5  C   UNL     1     -57.393 -51.881 -78.841  0.00  0.00    +0.000 A 
ATOM      6  C   UNL     1     -55.173 -50.251 -78.391  0.00  0.00    +0.000 A 
ATOM      7  C   UNL     1     -56.208 -52.125 -79.530  0.00  0.00    +0.000 A 
ATOM      8  C   UNL     1     -55.108 -51.308 -79.299  0.00  0.00    +0.000 A 
ENDROOT
BRANCH   3  14
ATOM      9  O   UNL     1     -58.882 -51.157 -76.110  0.00  0.00    +0.000 OA
ATOM     10  N   UNL     1     -59.658 -49.787 -77.789  0.00  0.00    +0.000 N 
ATOM     11  C   UNL     1     -61.407 -50.052 -78.897  0.00  0.00    +0.000 C 
ATOM     12  C   UNL     1     -59.940 -49.645 -79.216  0.00  0.00    +0.000 C 
ATOM     13  C   UNL     1     -61.069 -49.711 -77.415  0.00  0.00    +0.000 C 
ATOM     14  C   UNL     1     -58.717 -50.590 -77.185  0.00  0.00    +0.000 C 
BRANCH  11  16
ATOM     15  N   UNL     1     -63.238 -51.661 -79.355  0.00  0.00    +0.000 NA
ATOM     16  C   UNL     1     -61.781 -51.546 -79.090  0.00  0.00    +0.000 C 
ATOM     17  C   UNL     1     -61.003 -52.176 -80.259  0.00  0.00    +0.000 C 
ATOM     18  C   UNL     1     -61.400 -53.640 -80.454  0.00  0.00    +0.000 C 
ATOM     19  C   UNL     1     -63.627 -53.077 -79.416  0.00  0.00    +0.000 C 
ATOM     20  C   UNL     1     -62.913 -53.794 -80.560  0.00  0.00    +0.000 C 
ATOM     21  H   UNL     1     -63.421 -51.262 -80.279  0.00  0.00    +0.000 HD
ENDBRANCH  11  16
BRANCH  11  22
ATOM     22  O   UNL     1     -62.424 -49.199 -79.500  0.00  0.00    +0.000 OA
ATOM     23  H   UNL     1     -63.191 -49.797 -79.583  0.00  0.00    +0.000 HD
ENDBRANCH  11  22
ENDBRANCH   3  14
BRANCH   4  24
ATOM     24  N   UNL     1     -56.443 -48.951 -76.712  0.00  0.00    +0.000 N 
ATOM     25  H   UNL     1     -56.402 -49.301 -75.748  0.00  0.00    +0.000 HD
BRANCH  24  28
ATOM     26  I   UNL     1     -55.882 -42.677 -76.867  0.00  0.00    +0.000 I 
ATOM     27  F   UNL     1     -54.648 -47.602 -75.144  0.00  0.00    +0.000 F 
ATOM     28  C   UNL     1     -56.352 -47.549 -76.793  0.00  0.00    +0.000 A 
ATOM     29  C   UNL     1     -55.432 -46.882 -75.963  0.00  0.00    +0.000 A 
ATOM     30  C   UNL     1     -57.147 -46.764 -77.632  0.00  0.00    +0.000 A 
ATOM     31  C   UNL     1     -55.287 -45.497 -75.970  0.00  0.00    +0.000 A 
ATOM     32  C   UNL     1     -57.015 -45.368 -77.651  0.00  0.00    +0.000 A 
ATOM     33  C   UNL     1     -56.084 -44.742 -76.823  0.00  0.00    +0.000 A 
ENDBRANCH  24  28
ENDBRANCH   4  24
TORSDOF 5
ENDMDL
MODEL 8
REMARK VINA RESULT:      -5.7     38.987     42.142
REMARK  Name = 
REMARK  5 active torsions:
REMARK  status: ('A' for Active; 'I' for Inactive)
REMARK    1  A    between atoms: O_5  and  C_10
REMARK    2  A    between atoms: N_9  and  C_20
REMARK    3  A    between atoms: N_9  and  C_25
REMARK    4  A    between atoms: C_10  and  C_11
REMARK    5  A    between atoms: C_18  and  C_19
REMARK                            x       y       z     vdW  Elec       q    Type
REMARK                         _______ _______ _______ _____ _____    ______ ____
ROOT
ATOM      1  F   UNL     1     -67.517 -55.444 -78.991  0.00  0.00    +0.000 F 
ATOM      2  F   UNL     1     -66.163 -53.114 -79.153  0.00  0.00    +0.000 F 
ATOM      3  C   UNL     1     -64.113 -56.663 -79.405  0.00  0.00    +0.000 A 
ATOM      4  C   UNL     1     -65.514 -56.711 -79.232  0.00  0.00    +0.000 A 
ATOM      5  C   UNL     1     -63.417 -55.445 -79.503  0.00  0.00    +0.000 A 
ATOM      6  C   UNL     1     -66.184 -55.483 -79.140  0.00  0.00    +0.000 A 
ATOM      7  C   UNL     1     -64.117 -54.245 -79.418  0.00  0.00    +0.000 A 
ATOM      8  C   UNL     1     -65.495 -54.273 -79.237  0.00  0.00    +0.000 A 
ENDROOT
BRANCH   3  14
ATOM      9  O   UNL     1     -62.939 -58.427 -78.428  0.00  0.00    +0.000 OA
ATOM     10  N   UNL     1     -63.093 -58.434 -80.725  0.00  0.00    +0.000 N 
ATOM     11  C   UNL     1     -61.502 -58.446 -82.076  0.00  0.00    +0.000 C 
ATOM     12  C   UNL     1     -62.861 -57.699 -81.967  0.00  0.00    +0.000 C 
ATOM     13  C   UNL     1     -62.089 -59.449 -81.038  0.00  0.00    +0.000 C 
ATOM     14  C   UNL     1     -63.347 -57.926 -79.471  0.00  0.00    +0.000 C 
BRANCH  11  16
ATOM     15  N   UNL     1     -59.040 -58.203 -82.246  0.00  0.00    +0.000 NA
ATOM     16  C   UNL     1     -60.248 -57.706 -81.539  0.00  0.00    +0.000 C 
ATOM     17  C   UNL     1     -60.360 -56.184 -81.739  0.00  0.00    +0.000 C 
ATOM     18  C   UNL     1     -59.107 -55.471 -81.230  0.00  0.00    +0.000 C 
ATOM     19  C   UNL     1     -57.832 -57.603 -81.662  0.00  0.00    +0.000 C 
ATOM     20  C   UNL     1     -57.842 -56.083 -81.821  0.00  0.00    +0.000 C 
ATOM     21  H   UNL     1     -59.091 -57.884 -83.217  0.00  0.00    +0.000 HD
ENDBRANCH  11  16
BRANCH  11  22
ATOM     22  O   UNL     1     -61.222 -59.020 -83.386  0.00  0.00    +0.000 OA
ATOM     23  H   UNL     1     -61.988 -59.605 -83.538  0.00  0.00    +0.000 HD
ENDBRANCH  11  22
ENDBRANCH   3  14
BRANCH   4  24
ATOM     24  N   UNL     1     -66.161 -57.956 -79.075  0.00  0.00    +0.000 N 
ATOM     25  H   UNL     1     -66.237 -58.491 -79.948  0.00  0.00    +0.000 HD
BRANCH  24  28
ATOM     26  I   UNL     1     -67.653 -61.511 -74.092  0.00  0.00    +0.000 I 
ATOM     27  F   UNL     1     -65.210 -60.504 -78.757  0.00  0.00    +0.000 F 
ATOM     28  C   UNL     1     -66.518 -58.704 -77.938  0.00  0.00    +0.000 A 
ATOM     29  C   UNL     1     -66.027 -60.016 -77.810  0.00  0.00    +0.000 A 
ATOM     30  C   UNL     1     -67.364 -58.233 -76.930  0.00  0.00    +0.000 A 
ATOM     31  C   UNL     1     -66.342 -60.828 -76.724  0.00  0.00    +0.000 A 
ATOM     32  C   UNL     1     -67.691 -59.038 -75.830  0.00  0.00    +0.000 A 
ATOM     33  C   UNL     1     -67.177 -60.330 -75.731  0.00  0.00    +0.000 A 
ENDBRANCH  24  28
ENDBRANCH   4  24
TORSDOF 5
ENDMDL
MODEL 9
REMARK VINA RESULT:      -5.7     21.697     23.925
REMARK  Name = 
REMARK  5 active torsions:
REMARK  status: ('A' for Active; 'I' for Inactive)
REMARK    1  A    between atoms: O_5  and  C_10
REMARK    2  A    between atoms: N_9  and  C_20
REMARK    3  A    between atoms: N_9  and  C_25
REMARK    4  A    between atoms: C_10  and  C_11
REMARK    5  A    between atoms: C_18  and  C_19
REMARK                            x       y       z     vdW  Elec       q    Type
REMARK                         _______ _______ _______ _____ _____    ______ ____
ROOT
ATOM      1  F   UNL     1     -64.474 -47.395 -60.896  0.00  0.00    +0.000 F 
ATOM      2  F   UNL     1     -61.908 -47.702 -61.678  0.00  0.00    +0.000 F 
ATOM      3  C   UNL     1     -62.728 -45.757 -58.156  0.00  0.00    +0.000 A 
ATOM      4  C   UNL     1     -63.812 -46.241 -58.920  0.00  0.00    +0.000 A 
ATOM      5  C   UNL     1     -61.394 -45.934 -58.562  0.00  0.00    +0.000 A 
ATOM      6  C   UNL     1     -63.500 -46.893 -60.121  0.00  0.00    +0.000 A 
ATOM      7  C   UNL     1     -61.121 -46.595 -59.757  0.00  0.00    +0.000 A 
ATOM      8  C   UNL     1     -62.176 -47.069 -60.527  0.00  0.00    +0.000 A 
ENDROOT
BRANCH   3  14
ATOM      9  O   UNL     1     -63.274 -45.669 -55.888  0.00  0.00    +0.000 OA
ATOM     10  N   UNL     1     -62.971 -43.653 -56.958  0.00  0.00    +0.000 N 
ATOM     11  C   UNL     1     -64.362 -42.104 -57.102  0.00  0.00    +0.000 C 
ATOM     12  C   UNL     1     -63.360 -42.792 -58.073  0.00  0.00    +0.000 C 
ATOM     13  C   UNL     1     -63.533 -42.752 -55.953  0.00  0.00    +0.000 C 
ATOM     14  C   UNL     1     -62.997 -45.028 -56.897  0.00  0.00    +0.000 C 
BRANCH  11  16
ATOM     15  N   UNL     1     -66.689 -41.675 -56.360  0.00  0.00    +0.000 NA
ATOM     16  C   UNL     1     -65.829 -42.609 -57.132  0.00  0.00    +0.000 C 
ATOM     17  C   UNL     1     -66.362 -42.714 -58.572  0.00  0.00    +0.000 C 
ATOM     18  C   UNL     1     -67.816 -43.187 -58.584  0.00  0.00    +0.000 C 
ATOM     19  C   UNL     1     -68.057 -42.206 -56.274  0.00  0.00    +0.000 C 
ATOM     20  C   UNL     1     -68.683 -42.338 -57.661  0.00  0.00    +0.000 C 
ATOM     21  H   UNL     1     -66.743 -40.796 -56.881  0.00  0.00    +0.000 HD
ENDBRANCH  11  16
BRANCH  11  22
ATOM     22  O   UNL     1     -64.333 -40.646 -57.125  0.00  0.00    +0.000 OA
ATOM     23  H   UNL     1     -63.940 -40.448 -57.995  0.00  0.00    +0.000 HD
ENDBRANCH  11  22
ENDBRANCH   3  14
BRANCH   4  24
ATOM     24  N   UNL     1     -65.137 -45.985 -58.504  0.00  0.00    +0.000 N 
ATOM     25  H   UNL     1     -65.454 -45.031 -58.709  0.00  0.00    +0.000 HD
BRANCH  24  28
ATOM     26  I   UNL     1     -69.941 -49.676 -56.772  0.00  0.00    +0.000 I 
ATOM     27  F   UNL     1     -67.391 -46.270 -60.034  0.00  0.00    +0.000 F 
ATOM     28  C   UNL     1     -66.178 -46.830 -58.075  0.00  0.00    +0.000 A 
ATOM     29  C   UNL     1     -67.330 -46.944 -58.874  0.00  0.00    +0.000 A 
ATOM     30  C   UNL     1     -66.153 -47.549 -56.877  0.00  0.00    +0.000 A 
ATOM     31  C   UNL     1     -68.410 -47.747 -58.518  0.00  0.00    +0.000 A 
ATOM     32  C   UNL     1     -67.232 -48.361 -56.502  0.00  0.00    +0.000 A 
ATOM     33  C   UNL     1     -68.354 -48.459 -57.325  0.00  0.00    +0.000 A 
ENDBRANCH  24  28
ENDBRANCH   4  24
TORSDOF 5
ENDMDL
