MODEL 1
REMARK VINA RESULT:      -5.6      0.000      0.000
REMARK  Name = COUMESTROL.pdbqt.pdb
REMARK  2 active torsions:
REMARK  status: ('A' for Active; 'I' for Inactive)
REMARK    1  A    between atoms: C_16  and  O_19
REMARK    2  A    between atoms: C_18  and  O_21
REMARK                            x       y       z     vdW  Elec       q    Type
REMARK                         _______ _______ _______ _____ _____    ______ ____
ROOT
ATOM      1  O   UNL     1     -72.705 -57.596 -22.194  0.00  0.00    +0.000 OA
ATOM      2  O   UNL     1     -74.829 -54.166 -22.836  0.00  0.00    +0.000 OA
ATOM      3  O   UNL     1     -75.048 -54.820 -25.041  0.00  0.00    +0.000 OA
ATOM      4  C   UNL     1     -73.851 -56.244 -23.597  0.00  0.00    +0.000 A 
ATOM      5  C   UNL     1     -73.396 -56.442 -22.320  0.00  0.00    +0.000 A 
ATOM      6  C   UNL     1     -73.412 -57.366 -24.343  0.00  0.00    +0.000 A 
ATOM      7  C   UNL     1     -73.604 -55.556 -21.214  0.00  0.00    +0.000 A 
ATOM      8  C   UNL     1     -72.712 -58.169 -23.436  0.00  0.00    +0.000 A 
ATOM      9  C   UNL     1     -74.341 -54.401 -21.513  0.00  0.00    +0.000 A 
ATOM     10  C   UNL     1     -74.612 -55.059 -23.921  0.00  0.00    +0.000 A 
ATOM     11  C   UNL     1     -73.523 -57.797 -25.675  0.00  0.00    +0.000 A 
ATOM     12  C   UNL     1     -73.137 -55.769 -19.923  0.00  0.00    +0.000 A 
ATOM     13  C   UNL     1     -72.109 -59.383 -23.763  0.00  0.00    +0.000 A 
ATOM     14  C   UNL     1     -74.623 -53.449 -20.541  0.00  0.00    +0.000 A 
ATOM     15  C   UNL     1     -72.930 -59.010 -26.037  0.00  0.00    +0.000 A 
ATOM     16  C   UNL     1     -72.243 -59.775 -25.097  0.00  0.00    +0.000 A 
ATOM     17  C   UNL     1     -73.412 -54.821 -18.938  0.00  0.00    +0.000 A 
ATOM     18  C   UNL     1     -74.148 -53.676 -19.254  0.00  0.00    +0.000 A 
ENDROOT
BRANCH  16  19
ATOM     19  O   UNL     1     -71.687 -60.952 -25.522  0.00  0.00    +0.000 OA
ATOM     20  H   UNL     1     -71.650 -60.941 -26.494  0.00  0.00    +0.000 HD
ENDBRANCH  16  19
BRANCH  18  21
ATOM     21  O   UNL     1     -74.422 -52.743 -18.293  0.00  0.00    +0.000 OA
ATOM     22  H   UNL     1     -73.834 -52.902 -17.534  0.00  0.00    +0.000 HD
ENDBRANCH  18  21
TORSDOF 2
ENDMDL
MODEL 2
REMARK VINA RESULT:      -5.4     36.245     38.378
REMARK  Name = COUMESTROL.pdbqt.pdb
REMARK  2 active torsions:
REMARK  status: ('A' for Active; 'I' for Inactive)
REMARK    1  A    between atoms: C_16  and  O_19
REMARK    2  A    between atoms: C_18  and  O_21
REMARK                            x       y       z     vdW  Elec       q    Type
REMARK                         _______ _______ _______ _____ _____    ______ ____
ROOT
ATOM      1  O   UNL     1     -65.387 -46.826 -60.132  0.00  0.00    +0.000 OA
ATOM      2  O   UNL     1     -67.528 -46.092 -56.732  0.00  0.00    +0.000 OA
ATOM      3  O   UNL     1     -65.516 -45.868 -55.619  0.00  0.00    +0.000 OA
ATOM      4  C   UNL     1     -65.438 -46.357 -57.921  0.00  0.00    +0.000 A 
ATOM      5  C   UNL     1     -66.169 -46.593 -59.056  0.00  0.00    +0.000 A 
ATOM      6  C   UNL     1     -64.078 -46.448 -58.311  0.00  0.00    +0.000 A 
ATOM      7  C   UNL     1     -67.598 -46.602 -59.140  0.00  0.00    +0.000 A 
ATOM      8  C   UNL     1     -64.099 -46.738 -59.678  0.00  0.00    +0.000 A 
ATOM      9  C   UNL     1     -68.263 -46.342 -57.932  0.00  0.00    +0.000 A 
ATOM     10  C   UNL     1     -66.108 -46.087 -56.669  0.00  0.00    +0.000 A 
ATOM     11  C   UNL     1     -62.836 -46.319 -57.669  0.00  0.00    +0.000 A 
ATOM     12  C   UNL     1     -68.328 -46.843 -60.297  0.00  0.00    +0.000 A 
ATOM     13  C   UNL     1     -62.959 -46.911 -60.463  0.00  0.00    +0.000 A 
ATOM     14  C   UNL     1     -69.650 -46.318 -57.858  0.00  0.00    +0.000 A 
ATOM     15  C   UNL     1     -61.672 -46.487 -58.426  0.00  0.00    +0.000 A 
ATOM     16  C   UNL     1     -61.744 -46.775 -59.787  0.00  0.00    +0.000 A 
ATOM     17  C   UNL     1     -69.721 -46.822 -60.237  0.00  0.00    +0.000 A 
ATOM     18  C   UNL     1     -70.367 -46.561 -59.025  0.00  0.00    +0.000 A 
ENDROOT
BRANCH  16  19
ATOM     19  O   UNL     1     -60.564 -46.926 -60.466  0.00  0.00    +0.000 OA
ATOM     20  H   UNL     1     -60.614 -46.406 -61.286  0.00  0.00    +0.000 HD
ENDBRANCH  16  19
BRANCH  18  21
ATOM     21  O   UNL     1     -71.731 -46.539 -58.959  0.00  0.00    +0.000 OA
ATOM     22  H   UNL     1     -72.060 -47.445 -59.093  0.00  0.00    +0.000 HD
ENDBRANCH  18  21
TORSDOF 2
ENDMDL
MODEL 3
REMARK VINA RESULT:      -5.3     11.575     11.992
REMARK  Name = COUMESTROL.pdbqt.pdb
REMARK  2 active torsions:
REMARK  status: ('A' for Active; 'I' for Inactive)
REMARK    1  A    between atoms: C_16  and  O_19
REMARK    2  A    between atoms: C_18  and  O_21
REMARK                            x       y       z     vdW  Elec       q    Type
REMARK                         _______ _______ _______ _____ _____    ______ ____
ROOT
ATOM      1  O   UNL     1     -61.619 -55.314 -21.853  0.00  0.00    +0.000 OA
ATOM      2  O   UNL     1     -62.642 -51.359 -21.870  0.00  0.00    +0.000 OA
ATOM      3  O   UNL     1     -61.732 -51.225 -23.990  0.00  0.00    +0.000 OA
ATOM      4  C   UNL     1     -61.669 -53.316 -22.909  0.00  0.00    +0.000 A 
ATOM      5  C   UNL     1     -61.991 -54.017 -21.777  0.00  0.00    +0.000 A 
ATOM      6  C   UNL     1     -61.040 -54.245 -23.775  0.00  0.00    +0.000 A 
ATOM      7  C   UNL     1     -62.646 -53.482 -20.622  0.00  0.00    +0.000 A 
ATOM      8  C   UNL     1     -61.033 -55.459 -23.081  0.00  0.00    +0.000 A 
ATOM      9  C   UNL     1     -62.966 -52.118 -20.703  0.00  0.00    +0.000 A 
ATOM     10  C   UNL     1     -61.991 -51.910 -23.008  0.00  0.00    +0.000 A 
ATOM     11  C   UNL     1     -60.477 -54.202 -25.061  0.00  0.00    +0.000 A 
ATOM     12  C   UNL     1     -62.967 -54.205 -19.480  0.00  0.00    +0.000 A 
ATOM     13  C   UNL     1     -60.501 -56.647 -23.581  0.00  0.00    +0.000 A 
ATOM     14  C   UNL     1     -63.603 -51.459 -19.659  0.00  0.00    +0.000 A 
ATOM     15  C   UNL     1     -59.934 -55.376 -25.593  0.00  0.00    +0.000 A 
ATOM     16  C   UNL     1     -59.951 -56.562 -24.862  0.00  0.00    +0.000 A 
ATOM     17  C   UNL     1     -63.608 -53.556 -18.425  0.00  0.00    +0.000 A 
ATOM     18  C   UNL     1     -63.918 -52.197 -18.523  0.00  0.00    +0.000 A 
ENDROOT
BRANCH  16  19
ATOM     19  O   UNL     1     -59.401 -57.673 -25.444  0.00  0.00    +0.000 OA
ATOM     20  H   UNL     1     -59.896 -58.454 -25.142  0.00  0.00    +0.000 HD
ENDBRANCH  16  19
BRANCH  18  21
ATOM     21  O   UNL     1     -64.545 -51.555 -17.493  0.00  0.00    +0.000 OA
ATOM     22  H   UNL     1     -63.906 -50.957 -17.068  0.00  0.00    +0.000 HD
ENDBRANCH  18  21
TORSDOF 2
ENDMDL
MODEL 4
REMARK VINA RESULT:      -5.3      8.667     10.898
REMARK  Name = COUMESTROL.pdbqt.pdb
REMARK  2 active torsions:
REMARK  status: ('A' for Active; 'I' for Inactive)
REMARK    1  A    between atoms: C_16  and  O_19
REMARK    2  A    between atoms: C_18  and  O_21
REMARK                            x       y       z     vdW  Elec       q    Type
REMARK                         _______ _______ _______ _____ _____    ______ ____
ROOT
ATOM      1  O   UNL     1     -68.910 -56.893 -32.458  0.00  0.00    +0.000 OA
ATOM      2  O   UNL     1     -72.183 -54.556 -33.173  0.00  0.00    +0.000 OA
ATOM      3  O   UNL     1     -72.020 -55.163 -35.397  0.00  0.00    +0.000 OA
ATOM      4  C   UNL     1     -70.428 -56.051 -33.907  0.00  0.00    +0.000 A 
ATOM      5  C   UNL     1     -69.994 -56.100 -32.608  0.00  0.00    +0.000 A 
ATOM      6  C   UNL     1     -69.546 -56.883 -34.641  0.00  0.00    +0.000 A 
ATOM      7  C   UNL     1     -70.587 -55.409 -31.504  0.00  0.00    +0.000 A 
ATOM      8  C   UNL     1     -68.631 -57.377 -33.707  0.00  0.00    +0.000 A 
ATOM      9  C   UNL     1     -71.706 -54.627 -31.828  0.00  0.00    +0.000 A 
ATOM     10  C   UNL     1     -71.579 -55.251 -34.257  0.00  0.00    +0.000 A 
ATOM     11  C   UNL     1     -69.415 -57.274 -35.983  0.00  0.00    +0.000 A 
ATOM     12  C   UNL     1     -70.137 -55.467 -30.191  0.00  0.00    +0.000 A 
ATOM     13  C   UNL     1     -67.582 -58.242 -34.016  0.00  0.00    +0.000 A 
ATOM     14  C   UNL     1     -72.387 -53.899 -30.861  0.00  0.00    +0.000 A 
ATOM     15  C   UNL     1     -68.374 -58.141 -36.328  0.00  0.00    +0.000 A 
ATOM     16  C   UNL     1     -67.486 -58.607 -35.361  0.00  0.00    +0.000 A 
ATOM     17  C   UNL     1     -70.811 -54.741 -29.210  0.00  0.00    +0.000 A 
ATOM     18  C   UNL     1     -71.924 -53.967 -29.551  0.00  0.00    +0.000 A 
ENDROOT
BRANCH  16  19
ATOM     19  O   UNL     1     -66.490 -59.454 -35.769  0.00  0.00    +0.000 OA
ATOM     20  H   UNL     1     -65.895 -58.964 -36.363  0.00  0.00    +0.000 HD
ENDBRANCH  16  19
BRANCH  18  21
ATOM     21  O   UNL     1     -72.590 -53.254 -28.595  0.00  0.00    +0.000 OA
ATOM     22  H   UNL     1     -72.103 -53.336 -27.756  0.00  0.00    +0.000 HD
ENDBRANCH  18  21
TORSDOF 2
ENDMDL
MODEL 5
REMARK VINA RESULT:      -5.3      9.357     13.456
REMARK  Name = COUMESTROL.pdbqt.pdb
REMARK  2 active torsions:
REMARK  status: ('A' for Active; 'I' for Inactive)
REMARK    1  A    between atoms: C_16  and  O_19
REMARK    2  A    between atoms: C_18  and  O_21
REMARK                            x       y       z     vdW  Elec       q    Type
REMARK                         _______ _______ _______ _____ _____    ______ ____
ROOT
ATOM      1  O   UNL     1     -70.776 -55.752 -33.828  0.00  0.00    +0.000 OA
ATOM      2  O   UNL     1     -67.558 -58.251 -34.119  0.00  0.00    +0.000 OA
ATOM      3  O   UNL     1     -67.438 -58.221 -31.812  0.00  0.00    +0.000 OA
ATOM      4  C   UNL     1     -69.145 -56.958 -32.830  0.00  0.00    +0.000 A 
ATOM      5  C   UNL     1     -69.721 -56.576 -34.013  0.00  0.00    +0.000 A 
ATOM      6  C   UNL     1     -69.897 -56.324 -31.810  0.00  0.00    +0.000 A 
ATOM      7  C   UNL     1     -69.290 -56.977 -35.318  0.00  0.00    +0.000 A 
ATOM      8  C   UNL     1     -70.888 -55.594 -32.473  0.00  0.00    +0.000 A 
ATOM      9  C   UNL     1     -68.180 -57.835 -35.336  0.00  0.00    +0.000 A 
ATOM     10  C   UNL     1     -68.001 -57.841 -32.832  0.00  0.00    +0.000 A 
ATOM     11  C   UNL     1     -69.857 -56.281 -30.407  0.00  0.00    +0.000 A 
ATOM     12  C   UNL     1     -69.884 -56.583 -36.510  0.00  0.00    +0.000 A 
ATOM     13  C   UNL     1     -71.853 -54.816 -31.834  0.00  0.00    +0.000 A 
ATOM     14  C   UNL     1     -67.649 -58.308 -36.529  0.00  0.00    +0.000 A 
ATOM     15  C   UNL     1     -70.809 -55.510 -29.734  0.00  0.00    +0.000 A 
ATOM     16  C   UNL     1     -71.778 -54.800 -30.440  0.00  0.00    +0.000 A 
ATOM     17  C   UNL     1     -69.361 -57.050 -37.716  0.00  0.00    +0.000 A 
ATOM     18  C   UNL     1     -68.254 -57.904 -37.715  0.00  0.00    +0.000 A 
ENDROOT
BRANCH  16  19
ATOM     19  O   UNL     1     -72.679 -54.066 -29.716  0.00  0.00    +0.000 OA
ATOM     20  H   UNL     1     -72.205 -53.331 -29.289  0.00  0.00    +0.000 HD
ENDBRANCH  16  19
BRANCH  18  21
ATOM     21  O   UNL     1     -67.736 -58.366 -38.892  0.00  0.00    +0.000 OA
ATOM     22  H   UNL     1     -68.461 -58.446 -39.536  0.00  0.00    +0.000 HD
ENDBRANCH  18  21
TORSDOF 2
ENDMDL
MODEL 6
REMARK VINA RESULT:      -5.2     11.978     13.772
REMARK  Name = COUMESTROL.pdbqt.pdb
REMARK  2 active torsions:
REMARK  status: ('A' for Active; 'I' for Inactive)
REMARK    1  A    between atoms: C_16  and  O_19
REMARK    2  A    between atoms: C_18  and  O_21
REMARK                            x       y       z     vdW  Elec       q    Type
REMARK                         _______ _______ _______ _____ _____    ______ ____
ROOT
ATOM      1  O   UNL     1     -61.403 -55.202 -21.407  0.00  0.00    +0.000 OA
ATOM      2  O   UNL     1     -61.005 -53.796 -25.221  0.00  0.00    +0.000 OA
ATOM      3  O   UNL     1     -61.938 -51.812 -24.491  0.00  0.00    +0.000 OA
ATOM      4  C   UNL     1     -61.670 -53.534 -22.909  0.00  0.00    +0.000 A 
ATOM      5  C   UNL     1     -61.236 -54.816 -22.690  0.00  0.00    +0.000 A 
ATOM      6  C   UNL     1     -62.152 -53.070 -21.660  0.00  0.00    +0.000 A 
ATOM      7  C   UNL     1     -60.665 -55.683 -23.676  0.00  0.00    +0.000 A 
ATOM      8  C   UNL     1     -61.966 -54.131 -20.768  0.00  0.00    +0.000 A 
ATOM      9  C   UNL     1     -60.562 -55.129 -24.961  0.00  0.00    +0.000 A 
ATOM     10  C   UNL     1     -61.570 -52.950 -24.227  0.00  0.00    +0.000 A 
ATOM     11  C   UNL     1     -62.722 -51.880 -21.179  0.00  0.00    +0.000 A 
ATOM     12  C   UNL     1     -60.229 -56.981 -23.441  0.00  0.00    +0.000 A 
ATOM     13  C   UNL     1     -62.311 -54.093 -19.418  0.00  0.00    +0.000 A 
ATOM     14  C   UNL     1     -60.028 -55.851 -26.021  0.00  0.00    +0.000 A 
ATOM     15  C   UNL     1     -63.079 -51.807 -19.830  0.00  0.00    +0.000 A 
ATOM     16  C   UNL     1     -62.875 -52.892 -18.980  0.00  0.00    +0.000 A 
ATOM     17  C   UNL     1     -59.691 -57.717 -24.496  0.00  0.00    +0.000 A 
ATOM     18  C   UNL     1     -59.596 -57.149 -25.770  0.00  0.00    +0.000 A 
ENDROOT
BRANCH  16  19
ATOM     19  O   UNL     1     -63.249 -52.751 -17.670  0.00  0.00    +0.000 OA
ATOM     20  H   UNL     1     -62.999 -51.858 -17.374  0.00  0.00    +0.000 HD
ENDBRANCH  16  19
BRANCH  18  21
ATOM     21  O   UNL     1     -59.070 -57.865 -26.808  0.00  0.00    +0.000 OA
ATOM     22  H   UNL     1     -59.613 -58.662 -26.939  0.00  0.00    +0.000 HD
ENDBRANCH  18  21
TORSDOF 2
ENDMDL
MODEL 7
REMARK VINA RESULT:      -5.2     35.177     37.822
REMARK  Name = COUMESTROL.pdbqt.pdb
REMARK  2 active torsions:
REMARK  status: ('A' for Active; 'I' for Inactive)
REMARK    1  A    between atoms: C_16  and  O_19
REMARK    2  A    between atoms: C_18  and  O_21
REMARK                            x       y       z     vdW  Elec       q    Type
REMARK                         _______ _______ _______ _____ _____    ______ ____
ROOT
ATOM      1  O   UNL     1     -65.403 -46.379 -56.411  0.00  0.00    +0.000 OA
ATOM      2  O   UNL     1     -65.265 -47.172 -60.415  0.00  0.00    +0.000 OA
ATOM      3  O   UNL     1     -67.567 -47.370 -60.365  0.00  0.00    +0.000 OA
ATOM      4  C   UNL     1     -66.474 -46.864 -58.342  0.00  0.00    +0.000 A 
ATOM      5  C   UNL     1     -65.269 -46.632 -57.731  0.00  0.00    +0.000 A 
ATOM      6  C   UNL     1     -67.453 -46.748 -57.324  0.00  0.00    +0.000 A 
ATOM      7  C   UNL     1     -63.991 -46.647 -58.375  0.00  0.00    +0.000 A 
ATOM      8  C   UNL     1     -66.746 -46.449 -56.155  0.00  0.00    +0.000 A 
ATOM      9  C   UNL     1     -64.025 -46.926 -59.750  0.00  0.00    +0.000 A 
ATOM     10  C   UNL     1     -66.526 -47.154 -59.757  0.00  0.00    +0.000 A 
ATOM     11  C   UNL     1     -68.851 -46.860 -57.254  0.00  0.00    +0.000 A 
ATOM     12  C   UNL     1     -62.776 -46.410 -57.744  0.00  0.00    +0.000 A 
ATOM     13  C   UNL     1     -67.336 -46.251 -54.908  0.00  0.00    +0.000 A 
ATOM     14  C   UNL     1     -62.862 -46.974 -60.509  0.00  0.00    +0.000 A 
ATOM     15  C   UNL     1     -69.476 -46.667 -56.018  0.00  0.00    +0.000 A 
ATOM     16  C   UNL     1     -68.728 -46.371 -54.881  0.00  0.00    +0.000 A 
ATOM     17  C   UNL     1     -61.602 -46.455 -58.494  0.00  0.00    +0.000 A 
ATOM     18  C   UNL     1     -61.654 -46.735 -59.863  0.00  0.00    +0.000 A 
ENDROOT
BRANCH  16  19
ATOM     19  O   UNL     1     -69.405 -46.195 -53.704  0.00  0.00    +0.000 OA
ATOM     20  H   UNL     1     -69.175 -45.321 -53.345  0.00  0.00    +0.000 HD
ENDBRANCH  16  19
BRANCH  18  21
ATOM     21  O   UNL     1     -60.507 -46.781 -60.604  0.00  0.00    +0.000 OA
ATOM     22  H   UNL     1     -59.913 -47.444 -60.211  0.00  0.00    +0.000 HD
ENDBRANCH  18  21
TORSDOF 2
ENDMDL
MODEL 8
REMARK VINA RESULT:      -5.1     34.472     36.700
REMARK  Name = COUMESTROL.pdbqt.pdb
REMARK  2 active torsions:
REMARK  status: ('A' for Active; 'I' for Inactive)
REMARK    1  A    between atoms: C_16  and  O_19
REMARK    2  A    between atoms: C_18  and  O_21
REMARK                            x       y       z     vdW  Elec       q    Type
REMARK                         _______ _______ _______ _____ _____    ______ ____
ROOT
ATOM      1  O   UNL     1     -62.834 -45.971 -56.701  0.00  0.00    +0.000 OA
ATOM      2  O   UNL     1     -66.826 -46.395 -55.949  0.00  0.00    +0.000 OA
ATOM      3  O   UNL     1     -67.090 -46.984 -58.168  0.00  0.00    +0.000 OA
ATOM      4  C   UNL     1     -64.914 -46.469 -57.431  0.00  0.00    +0.000 A 
ATOM      5  C   UNL     1     -64.137 -46.088 -56.368  0.00  0.00    +0.000 A 
ATOM      6  C   UNL     1     -64.029 -46.605 -58.529  0.00  0.00    +0.000 A 
ATOM      7  C   UNL     1     -64.608 -45.832 -55.040  0.00  0.00    +0.000 A 
ATOM      8  C   UNL     1     -62.761 -46.288 -58.030  0.00  0.00    +0.000 A 
ATOM      9  C   UNL     1     -65.989 -45.999 -54.860  0.00  0.00    +0.000 A 
ATOM     10  C   UNL     1     -66.339 -46.645 -57.262  0.00  0.00    +0.000 A 
ATOM     11  C   UNL     1     -64.150 -46.958 -59.882  0.00  0.00    +0.000 A 
ATOM     12  C   UNL     1     -63.809 -45.446 -53.971  0.00  0.00    +0.000 A 
ATOM     13  C   UNL     1     -61.592 -46.297 -58.791  0.00  0.00    +0.000 A 
ATOM     14  C   UNL     1     -66.591 -45.786 -53.627  0.00  0.00    +0.000 A 
ATOM     15  C   UNL     1     -62.997 -46.977 -60.674  0.00  0.00    +0.000 A 
ATOM     16  C   UNL     1     -61.756 -46.654 -60.131  0.00  0.00    +0.000 A 
ATOM     17  C   UNL     1     -64.400 -45.229 -52.727  0.00  0.00    +0.000 A 
ATOM     18  C   UNL     1     -65.778 -45.400 -52.566  0.00  0.00    +0.000 A 
ENDROOT
BRANCH  16  19
ATOM     19  O   UNL     1     -60.670 -46.693 -60.964  0.00  0.00    +0.000 OA
ATOM     20  H   UNL     1     -60.869 -46.160 -61.754  0.00  0.00    +0.000 HD
ENDBRANCH  16  19
BRANCH  18  21
ATOM     21  O   UNL     1     -66.363 -45.189 -51.350  0.00  0.00    +0.000 OA
ATOM     22  H   UNL     1     -65.661 -45.084 -50.684  0.00  0.00    +0.000 HD
ENDBRANCH  18  21
TORSDOF 2
ENDMDL
MODEL 9
REMARK VINA RESULT:      -5.1     11.543     13.520
REMARK  Name = COUMESTROL.pdbqt.pdb
REMARK  2 active torsions:
REMARK  status: ('A' for Active; 'I' for Inactive)
REMARK    1  A    between atoms: C_16  and  O_19
REMARK    2  A    between atoms: C_18  and  O_21
REMARK                            x       y       z     vdW  Elec       q    Type
REMARK                         _______ _______ _______ _____ _____    ______ ____
ROOT
ATOM      1  O   UNL     1     -62.525 -50.971 -22.051  0.00  0.00    +0.000 OA
ATOM      2  O   UNL     1     -62.141 -54.993 -21.451  0.00  0.00    +0.000 OA
ATOM      3  O   UNL     1     -63.066 -54.679 -19.357  0.00  0.00    +0.000 OA
ATOM      4  C   UNL     1     -62.795 -52.781 -20.723  0.00  0.00    +0.000 A 
ATOM      5  C   UNL     1     -62.363 -52.307 -21.934  0.00  0.00    +0.000 A 
ATOM      6  C   UNL     1     -63.270 -51.650 -20.013  0.00  0.00    +0.000 A 
ATOM      7  C   UNL     1     -61.799 -53.099 -22.986  0.00  0.00    +0.000 A 
ATOM      8  C   UNL     1     -63.083 -50.562 -20.870  0.00  0.00    +0.000 A 
ATOM      9  C   UNL     1     -61.700 -54.470 -22.706  0.00  0.00    +0.000 A 
ATOM     10  C   UNL     1     -62.699 -54.190 -20.419  0.00  0.00    +0.000 A 
ATOM     11  C   UNL     1     -63.834 -51.419 -18.748  0.00  0.00    +0.000 A 
ATOM     12  C   UNL     1     -61.365 -52.606 -24.210  0.00  0.00    +0.000 A 
ATOM     13  C   UNL     1     -63.421 -49.246 -20.557  0.00  0.00    +0.000 A 
ATOM     14  C   UNL     1     -61.173 -55.363 -23.630  0.00  0.00    +0.000 A 
ATOM     15  C   UNL     1     -64.186 -50.111 -18.400  0.00  0.00    +0.000 A 
ATOM     16  C   UNL     1     -63.980 -49.060 -19.290  0.00  0.00    +0.000 A 
ATOM     17  C   UNL     1     -60.834 -53.492 -25.147  0.00  0.00    +0.000 A 
ATOM     18  C   UNL     1     -60.743 -54.854 -24.851  0.00  0.00    +0.000 A 
ENDROOT
BRANCH  16  19
ATOM     19  O   UNL     1     -64.347 -47.804 -18.884  0.00  0.00    +0.000 OA
ATOM     20  H   UNL     1     -64.499 -47.258 -19.675  0.00  0.00    +0.000 HD
ENDBRANCH  16  19
BRANCH  18  21
ATOM     21  O   UNL     1     -60.223 -55.727 -25.765  0.00  0.00    +0.000 OA
ATOM     22  H   UNL     1     -60.562 -55.489 -26.645  0.00  0.00    +0.000 HD
ENDBRANCH  18  21
TORSDOF 2
ENDMDL
