MODEL 1
REMARK VINA RESULT:      -5.9      0.000      0.000
REMARK  Name = CP466722.pdbqt.pdb
REMARK  3 active torsions:
REMARK  status: ('A' for Active; 'I' for Inactive)
REMARK    1  A    between atoms: C_5  and  C_23
REMARK    2  A    between atoms: C_14  and  O_16
REMARK    3  A    between atoms: C_15  and  O_18
REMARK                            x       y       z     vdW  Elec       q    Type
REMARK                         _______ _______ _______ _____ _____    ______ ____
ROOT
ATOM      1  N   UNL     1     -65.432 -47.304 -55.088  0.00  0.00    +0.000 N 
ATOM      2  N   UNL     1     -64.287 -46.797 -54.574  0.00  0.00    +0.000 NA
ATOM      3  N   UNL     1     -65.664 -47.488 -52.896  0.00  0.00    +0.000 NA
ATOM      4  C   UNL     1     -66.250 -47.733 -54.040  0.00  0.00    +0.000 A 
ATOM      5  C   UNL     1     -64.461 -46.921 -53.249  0.00  0.00    +0.000 A 
ATOM      6  C   UNL     1     -65.714 -47.328 -56.495  0.00  0.00    +0.000 A 
ATOM      7  N   UNL     1     -66.956 -47.740 -56.864  0.00  0.00    +0.000 NA
ATOM      8  C   UNL     1     -67.225 -47.740 -58.174  0.00  0.00    +0.000 A 
ATOM      9  N   UNL     1     -66.382 -47.362 -59.139  0.00  0.00    +0.000 NA
ATOM     10  C   UNL     1     -65.164 -46.959 -58.771  0.00  0.00    +0.000 A 
ATOM     11  C   UNL     1     -64.746 -46.922 -57.434  0.00  0.00    +0.000 A 
ATOM     12  C   UNL     1     -64.283 -46.555 -59.764  0.00  0.00    +0.000 A 
ATOM     13  C   UNL     1     -63.421 -46.508 -57.158  0.00  0.00    +0.000 A 
ATOM     14  C   UNL     1     -62.535 -46.142 -58.164  0.00  0.00    +0.000 A 
ATOM     15  C   UNL     1     -62.990 -46.113 -59.477  0.00  0.00    +0.000 A 
ATOM     16  N   UNL     1     -67.455 -48.316 -54.192  0.00  0.00    +0.000 N 
ATOM     17  H   UNL     1     -68.066 -48.370 -53.385  0.00  0.00    +0.000 HD
ATOM     18  H   UNL     1     -67.927 -48.264 -55.095  0.00  0.00    +0.000 HD
ENDROOT
BRANCH   5  19
ATOM     19  C   UNL     1     -63.479 -46.493 -52.249  0.00  0.00    +0.000 A 
ATOM     20  N   UNL     1     -62.534 -45.588 -52.626  0.00  0.00    +0.000 NA
ATOM     21  C   UNL     1     -61.640 -45.211 -51.686  0.00  0.00    +0.000 A 
ATOM     22  C   UNL     1     -61.633 -45.684 -50.386  0.00  0.00    +0.000 A 
ATOM     23  C   UNL     1     -62.610 -46.604 -50.029  0.00  0.00    +0.000 A 
ATOM     24  C   UNL     1     -63.548 -47.020 -50.965  0.00  0.00    +0.000 A 
ENDBRANCH   5  19
BRANCH  14  25
ATOM     25  O   UNL     1     -61.278 -45.733 -57.807  0.00  0.00    +0.000 OA
ATOM     26  C   UNL     1     -61.249 -44.340 -57.618  0.00  0.00    +0.000 C 
ENDBRANCH  14  25
BRANCH  15  27
ATOM     27  O   UNL     1     -62.164 -45.741 -60.503  0.00  0.00    +0.000 OA
ATOM     28  C   UNL     1     -61.919 -46.836 -61.350  0.00  0.00    +0.000 C 
ENDBRANCH  15  27
TORSDOF 3
ENDMDL
MODEL 2
REMARK VINA RESULT:      -5.7     20.102     24.142
REMARK  Name = CP466722.pdbqt.pdb
REMARK  3 active torsions:
REMARK  status: ('A' for Active; 'I' for Inactive)
REMARK    1  A    between atoms: C_5  and  C_23
REMARK    2  A    between atoms: C_14  and  O_16
REMARK    3  A    between atoms: C_15  and  O_18
REMARK                            x       y       z     vdW  Elec       q    Type
REMARK                         _______ _______ _______ _____ _____    ______ ____
ROOT
ATOM      1  N   UNL     1     -67.159 -59.482 -75.344  0.00  0.00    +0.000 N 
ATOM      2  N   UNL     1     -66.015 -60.168 -75.576  0.00  0.00    +0.000 NA
ATOM      3  N   UNL     1     -66.745 -59.183 -77.495  0.00  0.00    +0.000 NA
ATOM      4  C   UNL     1     -67.576 -58.878 -76.532  0.00  0.00    +0.000 A 
ATOM      5  C   UNL     1     -65.795 -59.968 -76.884  0.00  0.00    +0.000 A 
ATOM      6  C   UNL     1     -67.810 -59.457 -74.065  0.00  0.00    +0.000 A 
ATOM      7  N   UNL     1     -69.021 -58.843 -74.005  0.00  0.00    +0.000 NA
ATOM      8  C   UNL     1     -69.637 -58.841 -72.818  0.00  0.00    +0.000 A 
ATOM      9  N   UNL     1     -69.165 -59.397 -71.698  0.00  0.00    +0.000 NA
ATOM     10  C   UNL     1     -67.975 -59.998 -71.763  0.00  0.00    +0.000 A 
ATOM     11  C   UNL     1     -67.217 -60.063 -72.939  0.00  0.00    +0.000 A 
ATOM     12  C   UNL     1     -67.480 -60.588 -70.608  0.00  0.00    +0.000 A 
ATOM     13  C   UNL     1     -65.953 -60.697 -72.888  0.00  0.00    +0.000 A 
ATOM     14  C   UNL     1     -65.449 -61.251 -71.716  0.00  0.00    +0.000 A 
ATOM     15  C   UNL     1     -66.247 -61.243 -70.578  0.00  0.00    +0.000 A 
ATOM     16  N   UNL     1     -68.665 -58.094 -76.657  0.00  0.00    +0.000 N 
ATOM     17  H   UNL     1     -69.013 -57.903 -77.590  0.00  0.00    +0.000 HD
ATOM     18  H   UNL     1     -69.369 -58.092 -75.919  0.00  0.00    +0.000 HD
ENDROOT
BRANCH   5  19
ATOM     19  C   UNL     1     -64.658 -60.529 -77.621  0.00  0.00    +0.000 A 
ATOM     20  N   UNL     1     -64.892 -61.580 -78.454  0.00  0.00    +0.000 NA
ATOM     21  C   UNL     1     -63.829 -62.080 -79.120  0.00  0.00    +0.000 A 
ATOM     22  C   UNL     1     -62.540 -61.589 -79.006  0.00  0.00    +0.000 A 
ATOM     23  C   UNL     1     -62.332 -60.515 -78.151  0.00  0.00    +0.000 A 
ATOM     24  C   UNL     1     -63.398 -59.972 -77.445  0.00  0.00    +0.000 A 
ENDBRANCH   5  19
BRANCH  14  25
ATOM     25  O   UNL     1     -64.227 -61.865 -71.760  0.00  0.00    +0.000 OA
ATOM     26  C   UNL     1     -64.345 -63.157 -72.302  0.00  0.00    +0.000 C 
ENDBRANCH  14  25
BRANCH  15  27
ATOM     27  O   UNL     1     -65.807 -61.793 -69.404  0.00  0.00    +0.000 OA
ATOM     28  C   UNL     1     -66.157 -60.967 -68.322  0.00  0.00    +0.000 C 
ENDBRANCH  15  27
TORSDOF 3
ENDMDL
MODEL 3
REMARK VINA RESULT:      -5.5      3.167      7.368
REMARK  Name = CP466722.pdbqt.pdb
REMARK  3 active torsions:
REMARK  status: ('A' for Active; 'I' for Inactive)
REMARK    1  A    between atoms: C_5  and  C_23
REMARK    2  A    between atoms: C_14  and  O_16
REMARK    3  A    between atoms: C_15  and  O_18
REMARK                            x       y       z     vdW  Elec       q    Type
REMARK                         _______ _______ _______ _____ _____    ______ ____
ROOT
ATOM      1  N   UNL     1     -63.236 -44.724 -55.032  0.00  0.00    +0.000 N 
ATOM      2  N   UNL     1     -63.377 -45.717 -55.942  0.00  0.00    +0.000 NA
ATOM      3  N   UNL     1     -62.377 -43.910 -56.900  0.00  0.00    +0.000 NA
ATOM      4  C   UNL     1     -62.608 -43.636 -55.642  0.00  0.00    +0.000 A 
ATOM      5  C   UNL     1     -62.851 -45.191 -57.058  0.00  0.00    +0.000 A 
ATOM      6  C   UNL     1     -63.716 -44.825 -53.684  0.00  0.00    +0.000 A 
ATOM      7  N   UNL     1     -63.629 -43.706 -52.917  0.00  0.00    +0.000 NA
ATOM      8  C   UNL     1     -64.098 -43.795 -51.667  0.00  0.00    +0.000 A 
ATOM      9  N   UNL     1     -64.648 -44.884 -51.121  0.00  0.00    +0.000 NA
ATOM     10  C   UNL     1     -64.730 -45.979 -51.878  0.00  0.00    +0.000 A 
ATOM     11  C   UNL     1     -64.266 -46.029 -53.199  0.00  0.00    +0.000 A 
ATOM     12  C   UNL     1     -65.308 -47.113 -51.324  0.00  0.00    +0.000 A 
ATOM     13  C   UNL     1     -64.373 -47.253 -53.902  0.00  0.00    +0.000 A 
ATOM     14  C   UNL     1     -64.919 -48.393 -53.324  0.00  0.00    +0.000 A 
ATOM     15  C   UNL     1     -65.442 -48.305 -52.039  0.00  0.00    +0.000 A 
ATOM     16  N   UNL     1     -62.285 -42.485 -55.019  0.00  0.00    +0.000 N 
ATOM     17  H   UNL     1     -62.056 -41.679 -55.591  0.00  0.00    +0.000 HD
ATOM     18  H   UNL     1     -62.697 -42.273 -54.111  0.00  0.00    +0.000 HD
ENDROOT
BRANCH   5  19
ATOM     19  C   UNL     1     -62.781 -45.894 -58.343  0.00  0.00    +0.000 A 
ATOM     20  N   UNL     1     -63.952 -46.218 -58.958  0.00  0.00    +0.000 NA
ATOM     21  C   UNL     1     -63.861 -46.866 -60.140  0.00  0.00    +0.000 A 
ATOM     22  C   UNL     1     -62.667 -47.209 -60.749  0.00  0.00    +0.000 A 
ATOM     23  C   UNL     1     -61.489 -46.863 -60.100  0.00  0.00    +0.000 A 
ATOM     24  C   UNL     1     -61.537 -46.197 -58.881  0.00  0.00    +0.000 A 
ENDBRANCH   5  19
BRANCH  14  25
ATOM     25  O   UNL     1     -65.004 -49.529 -54.082  0.00  0.00    +0.000 OA
ATOM     26  C   UNL     1     -63.801 -50.252 -54.022  0.00  0.00    +0.000 C 
ENDBRANCH  14  25
BRANCH  15  27
ATOM     27  O   UNL     1     -66.008 -49.392 -51.432  0.00  0.00    +0.000 OA
ATOM     28  C   UNL     1     -67.340 -49.111 -51.077  0.00  0.00    +0.000 C 
ENDBRANCH  15  27
TORSDOF 3
ENDMDL
MODEL 4
REMARK VINA RESULT:      -5.5     16.197     19.583
REMARK  Name = CP466722.pdbqt.pdb
REMARK  3 active torsions:
REMARK  status: ('A' for Active; 'I' for Inactive)
REMARK    1  A    between atoms: C_5  and  C_23
REMARK    2  A    between atoms: C_14  and  O_16
REMARK    3  A    between atoms: C_15  and  O_18
REMARK                            x       y       z     vdW  Elec       q    Type
REMARK                         _______ _______ _______ _____ _____    ______ ____
ROOT
ATOM      1  N   UNL     1     -67.402 -47.526 -36.625  0.00  0.00    +0.000 N 
ATOM      2  N   UNL     1     -66.557 -47.694 -35.580  0.00  0.00    +0.000 NA
ATOM      3  N   UNL     1     -68.707 -48.047 -34.917  0.00  0.00    +0.000 NA
ATOM      4  C   UNL     1     -68.710 -47.763 -36.194  0.00  0.00    +0.000 A 
ATOM      5  C   UNL     1     -67.378 -48.006 -34.566  0.00  0.00    +0.000 A 
ATOM      6  C   UNL     1     -66.961 -47.127 -37.931  0.00  0.00    +0.000 A 
ATOM      7  N   UNL     1     -67.928 -46.865 -38.850  0.00  0.00    +0.000 NA
ATOM      8  C   UNL     1     -67.516 -46.471 -40.060  0.00  0.00    +0.000 A 
ATOM      9  N   UNL     1     -66.243 -46.307 -40.431  0.00  0.00    +0.000 NA
ATOM     10  C   UNL     1     -65.299 -46.567 -39.525  0.00  0.00    +0.000 A 
ATOM     11  C   UNL     1     -65.589 -46.999 -38.224  0.00  0.00    +0.000 A 
ATOM     12  C   UNL     1     -63.973 -46.391 -39.896  0.00  0.00    +0.000 A 
ATOM     13  C   UNL     1     -64.509 -47.278 -37.353  0.00  0.00    +0.000 A 
ATOM     14  C   UNL     1     -63.184 -47.135 -37.748  0.00  0.00    +0.000 A 
ATOM     15  C   UNL     1     -62.916 -46.633 -39.016  0.00  0.00    +0.000 A 
ATOM     16  N   UNL     1     -69.801 -47.712 -36.982  0.00  0.00    +0.000 N 
ATOM     17  H   UNL     1     -70.711 -47.661 -36.537  0.00  0.00    +0.000 HD
ATOM     18  H   UNL     1     -69.738 -47.269 -37.898  0.00  0.00    +0.000 HD
ENDROOT
BRANCH   5  19
ATOM     19  C   UNL     1     -66.926 -48.274 -33.197  0.00  0.00    +0.000 A 
ATOM     20  N   UNL     1     -66.115 -47.358 -32.600  0.00  0.00    +0.000 NA
ATOM     21  C   UNL     1     -65.711 -47.628 -31.340  0.00  0.00    +0.000 A 
ATOM     22  C   UNL     1     -66.071 -48.763 -30.635  0.00  0.00    +0.000 A 
ATOM     23  C   UNL     1     -66.902 -49.679 -31.268  0.00  0.00    +0.000 A 
ATOM     24  C   UNL     1     -67.339 -49.441 -32.565  0.00  0.00    +0.000 A 
ENDBRANCH   5  19
BRANCH  14  25
ATOM     25  O   UNL     1     -62.200 -47.404 -36.835  0.00  0.00    +0.000 OA
ATOM     26  C   UNL     1     -62.053 -46.330 -35.940  0.00  0.00    +0.000 C 
ENDBRANCH  14  25
BRANCH  15  27
ATOM     27  O   UNL     1     -61.629 -46.455 -39.447  0.00  0.00    +0.000 OA
ATOM     28  C   UNL     1     -61.405 -45.102 -39.756  0.00  0.00    +0.000 C 
ENDBRANCH  15  27
TORSDOF 3
ENDMDL
MODEL 5
REMARK VINA RESULT:      -5.5     40.596     43.539
REMARK  Name = CP466722.pdbqt.pdb
REMARK  3 active torsions:
REMARK  status: ('A' for Active; 'I' for Inactive)
REMARK    1  A    between atoms: C_5  and  C_23
REMARK    2  A    between atoms: C_14  and  O_16
REMARK    3  A    between atoms: C_15  and  O_18
REMARK                            x       y       z     vdW  Elec       q    Type
REMARK                         _______ _______ _______ _____ _____    ______ ____
ROOT
ATOM      1  N   UNL     1     -46.027 -60.297 -90.615  0.00  0.00    +0.000 N 
ATOM      2  N   UNL     1     -46.375 -60.071 -91.904  0.00  0.00    +0.000 NA
ATOM      3  N   UNL     1     -47.629 -58.776 -90.512  0.00  0.00    +0.000 NA
ATOM      4  C   UNL     1     -46.799 -59.480 -89.786  0.00  0.00    +0.000 A 
ATOM      5  C   UNL     1     -47.346 -59.150 -91.805  0.00  0.00    +0.000 A 
ATOM      6  C   UNL     1     -45.040 -61.265 -90.230  0.00  0.00    +0.000 A 
ATOM      7  N   UNL     1     -44.885 -61.486 -88.897  0.00  0.00    +0.000 NA
ATOM      8  C   UNL     1     -43.982 -62.405 -88.541  0.00  0.00    +0.000 A 
ATOM      9  N   UNL     1     -43.233 -63.125 -89.383  0.00  0.00    +0.000 NA
ATOM     10  C   UNL     1     -43.390 -62.904 -90.689  0.00  0.00    +0.000 A 
ATOM     11  C   UNL     1     -44.291 -61.960 -91.201  0.00  0.00    +0.000 A 
ATOM     12  C   UNL     1     -42.625 -63.652 -91.573  0.00  0.00    +0.000 A 
ATOM     13  C   UNL     1     -44.354 -61.784 -92.603  0.00  0.00    +0.000 A 
ATOM     14  C   UNL     1     -43.555 -62.512 -93.477  0.00  0.00    +0.000 A 
ATOM     15  C   UNL     1     -42.722 -63.495 -92.957  0.00  0.00    +0.000 A 
ATOM     16  N   UNL     1     -46.694 -59.427 -88.444  0.00  0.00    +0.000 N 
ATOM     17  H   UNL     1     -47.448 -58.993 -87.921  0.00  0.00    +0.000 HD
ATOM     18  H   UNL     1     -46.188 -60.162 -87.950  0.00  0.00    +0.000 HD
ENDROOT
BRANCH   5  19
ATOM     19  C   UNL     1     -48.060 -58.584 -92.953  0.00  0.00    +0.000 A 
ATOM     20  N   UNL     1     -49.302 -59.066 -93.234  0.00  0.00    +0.000 NA
ATOM     21  C   UNL     1     -49.939 -58.528 -94.297  0.00  0.00    +0.000 A 
ATOM     22  C   UNL     1     -49.410 -57.533 -95.099  0.00  0.00    +0.000 A 
ATOM     23  C   UNL     1     -48.143 -57.059 -94.786  0.00  0.00    +0.000 A 
ATOM     24  C   UNL     1     -47.451 -57.585 -93.702  0.00  0.00    +0.000 A 
ENDBRANCH   5  19
BRANCH  14  25
ATOM     25  O   UNL     1     -43.695 -62.294 -94.821  0.00  0.00    +0.000 OA
ATOM     26  C   UNL     1     -43.959 -60.937 -95.074  0.00  0.00    +0.000 C 
ENDBRANCH  14  25
BRANCH  15  27
ATOM     27  O   UNL     1     -41.929 -64.254 -93.776  0.00  0.00    +0.000 OA
ATOM     28  C   UNL     1     -40.589 -63.844 -93.670  0.00  0.00    +0.000 C 
ENDBRANCH  15  27
TORSDOF 3
ENDMDL
MODEL 6
REMARK VINA RESULT:      -5.3     33.843     38.305
REMARK  Name = CP466722.pdbqt.pdb
REMARK  3 active torsions:
REMARK  status: ('A' for Active; 'I' for Inactive)
REMARK    1  A    between atoms: C_5  and  C_23
REMARK    2  A    between atoms: C_14  and  O_16
REMARK    3  A    between atoms: C_15  and  O_18
REMARK                            x       y       z     vdW  Elec       q    Type
REMARK                         _______ _______ _______ _____ _____    ______ ____
ROOT
ATOM      1  N   UNL     1     -63.123 -54.120 -17.923  0.00  0.00    +0.000 N 
ATOM      2  N   UNL     1     -63.236 -53.596 -19.166  0.00  0.00    +0.000 NA
ATOM      3  N   UNL     1     -61.656 -55.236 -19.144  0.00  0.00    +0.000 NA
ATOM      4  C   UNL     1     -62.161 -55.131 -17.941  0.00  0.00    +0.000 A 
ATOM      5  C   UNL     1     -62.335 -54.291 -19.877  0.00  0.00    +0.000 A 
ATOM      6  C   UNL     1     -63.875 -53.637 -16.800  0.00  0.00    +0.000 A 
ATOM      7  N   UNL     1     -63.566 -54.161 -15.584  0.00  0.00    +0.000 NA
ATOM      8  C   UNL     1     -64.252 -53.693 -14.535  0.00  0.00    +0.000 A 
ATOM      9  N   UNL     1     -65.201 -52.754 -14.586  0.00  0.00    +0.000 NA
ATOM     10  C   UNL     1     -65.500 -52.243 -15.781  0.00  0.00    +0.000 A 
ATOM     11  C   UNL     1     -64.869 -52.651 -16.964  0.00  0.00    +0.000 A 
ATOM     12  C   UNL     1     -66.477 -51.260 -15.844  0.00  0.00    +0.000 A 
ATOM     13  C   UNL     1     -65.286 -52.066 -18.183  0.00  0.00    +0.000 A 
ATOM     14  C   UNL     1     -66.293 -51.109 -18.239  0.00  0.00    +0.000 A 
ATOM     15  C   UNL     1     -66.855 -50.663 -17.049  0.00  0.00    +0.000 A 
ATOM     16  N   UNL     1     -61.815 -55.885 -16.879  0.00  0.00    +0.000 N 
ATOM     17  H   UNL     1     -60.953 -56.418 -16.930  0.00  0.00    +0.000 HD
ATOM     18  H   UNL     1     -62.091 -55.590 -15.943  0.00  0.00    +0.000 HD
ENDROOT
BRANCH   5  19
ATOM     19  C   UNL     1     -62.073 -54.077 -21.303  0.00  0.00    +0.000 A 
ATOM     20  N   UNL     1     -61.897 -55.173 -22.092  0.00  0.00    +0.000 NA
ATOM     21  C   UNL     1     -61.656 -54.950 -23.402  0.00  0.00    +0.000 A 
ATOM     22  C   UNL     1     -61.583 -53.693 -23.976  0.00  0.00    +0.000 A 
ATOM     23  C   UNL     1     -61.770 -52.594 -23.148  0.00  0.00    +0.000 A 
ATOM     24  C   UNL     1     -62.018 -52.778 -21.794  0.00  0.00    +0.000 A 
ENDBRANCH   5  19
BRANCH  14  25
ATOM     25  O   UNL     1     -66.620 -50.579 -19.457  0.00  0.00    +0.000 OA
ATOM     26  C   UNL     1     -65.636 -49.668 -19.877  0.00  0.00    +0.000 C 
ENDBRANCH  14  25
BRANCH  15  27
ATOM     27  O   UNL     1     -67.836 -49.708 -17.046  0.00  0.00    +0.000 OA
ATOM     28  C   UNL     1     -67.308 -48.471 -16.635  0.00  0.00    +0.000 C 
ENDBRANCH  15  27
TORSDOF 3
ENDMDL
MODEL 7
REMARK VINA RESULT:      -5.3     30.098     34.778
REMARK  Name = CP466722.pdbqt.pdb
REMARK  3 active torsions:
REMARK  status: ('A' for Active; 'I' for Inactive)
REMARK    1  A    between atoms: C_5  and  C_23
REMARK    2  A    between atoms: C_14  and  O_16
REMARK    3  A    between atoms: C_15  and  O_18
REMARK                            x       y       z     vdW  Elec       q    Type
REMARK                         _______ _______ _______ _____ _____    ______ ____
ROOT
ATOM      1  N   UNL     1     -62.054 -53.186 -22.442  0.00  0.00    +0.000 N 
ATOM      2  N   UNL     1     -62.034 -52.031 -23.148  0.00  0.00    +0.000 NA
ATOM      3  N   UNL     1     -61.331 -53.761 -24.451  0.00  0.00    +0.000 NA
ATOM      4  C   UNL     1     -61.634 -54.231 -23.268  0.00  0.00    +0.000 A 
ATOM      5  C   UNL     1     -61.590 -52.413 -24.355  0.00  0.00    +0.000 A 
ATOM      6  C   UNL     1     -62.421 -53.250 -21.056  0.00  0.00    +0.000 A 
ATOM      7  N   UNL     1     -62.268 -54.450 -20.436  0.00  0.00    +0.000 NA
ATOM      8  C   UNL     1     -62.588 -54.501 -19.139  0.00  0.00    +0.000 A 
ATOM      9  N   UNL     1     -63.034 -53.475 -18.408  0.00  0.00    +0.000 NA
ATOM     10  C   UNL     1     -63.182 -52.300 -19.022  0.00  0.00    +0.000 A 
ATOM     11  C   UNL     1     -62.896 -52.108 -20.380  0.00  0.00    +0.000 A 
ATOM     12  C   UNL     1     -63.635 -51.225 -18.270  0.00  0.00    +0.000 A 
ATOM     13  C   UNL     1     -63.120 -50.827 -20.938  0.00  0.00    +0.000 A 
ATOM     14  C   UNL     1     -63.610 -49.767 -20.184  0.00  0.00    +0.000 A 
ATOM     15  C   UNL     1     -63.817 -49.955 -18.823  0.00  0.00    +0.000 A 
ATOM     16  N   UNL     1     -61.561 -55.524 -22.898  0.00  0.00    +0.000 N 
ATOM     17  H   UNL     1     -61.025 -56.159 -23.480  0.00  0.00    +0.000 HD
ATOM     18  H   UNL     1     -61.599 -55.766 -21.908  0.00  0.00    +0.000 HD
ENDROOT
BRANCH   5  19
ATOM     19  C   UNL     1     -61.385 -51.498 -25.482  0.00  0.00    +0.000 A 
ATOM     20  N   UNL     1     -62.476 -50.870 -26.001  0.00  0.00    +0.000 NA
ATOM     21  C   UNL     1     -62.261 -50.033 -27.040  0.00  0.00    +0.000 A 
ATOM     22  C   UNL     1     -61.018 -49.783 -27.592  0.00  0.00    +0.000 A 
ATOM     23  C   UNL     1     -59.923 -50.435 -27.039  0.00  0.00    +0.000 A 
ATOM     24  C   UNL     1     -60.099 -51.306 -25.971  0.00  0.00    +0.000 A 
ENDBRANCH   5  19
BRANCH  14  25
ATOM     25  O   UNL     1     -63.777 -48.555 -20.798  0.00  0.00    +0.000 OA
ATOM     26  C   UNL     1     -62.978 -48.474 -21.952  0.00  0.00    +0.000 C 
ENDBRANCH  14  25
BRANCH  15  27
ATOM     27  O   UNL     1     -64.280 -48.938 -18.032  0.00  0.00    +0.000 OA
ATOM     28  C   UNL     1     -65.557 -49.253 -17.535  0.00  0.00    +0.000 C 
ENDBRANCH  15  27
TORSDOF 3
ENDMDL
MODEL 8
REMARK VINA RESULT:      -5.3      3.476      6.163
REMARK  Name = CP466722.pdbqt.pdb
REMARK  3 active torsions:
REMARK  status: ('A' for Active; 'I' for Inactive)
REMARK    1  A    between atoms: C_5  and  C_23
REMARK    2  A    between atoms: C_14  and  O_16
REMARK    3  A    between atoms: C_15  and  O_18
REMARK                            x       y       z     vdW  Elec       q    Type
REMARK                         _______ _______ _______ _____ _____    ______ ____
ROOT
ATOM      1  N   UNL     1     -62.858 -45.966 -59.452  0.00  0.00    +0.000 N 
ATOM      2  N   UNL     1     -62.260 -45.263 -58.461  0.00  0.00    +0.000 NA
ATOM      3  N   UNL     1     -60.959 -45.249 -60.330  0.00  0.00    +0.000 NA
ATOM      4  C   UNL     1     -62.047 -45.928 -60.588  0.00  0.00    +0.000 A 
ATOM      5  C   UNL     1     -61.116 -44.847 -59.023  0.00  0.00    +0.000 A 
ATOM      6  C   UNL     1     -64.107 -46.651 -59.281  0.00  0.00    +0.000 A 
ATOM      7  N   UNL     1     -64.527 -47.428 -60.315  0.00  0.00    +0.000 NA
ATOM      8  C   UNL     1     -65.679 -48.084 -60.145  0.00  0.00    +0.000 A 
ATOM      9  N   UNL     1     -66.441 -48.044 -59.047  0.00  0.00    +0.000 NA
ATOM     10  C   UNL     1     -66.024 -47.279 -58.036  0.00  0.00    +0.000 A 
ATOM     11  C   UNL     1     -64.842 -46.528 -58.085  0.00  0.00    +0.000 A 
ATOM     12  C   UNL     1     -66.802 -47.237 -56.888  0.00  0.00    +0.000 A 
ATOM     13  C   UNL     1     -64.512 -45.725 -56.968  0.00  0.00    +0.000 A 
ATOM     14  C   UNL     1     -65.318 -45.661 -55.837  0.00  0.00    +0.000 A 
ATOM     15  C   UNL     1     -66.447 -46.469 -55.776  0.00  0.00    +0.000 A 
ATOM     16  N   UNL     1     -62.350 -46.500 -61.770  0.00  0.00    +0.000 N 
ATOM     17  H   UNL     1     -61.605 -46.623 -62.447  0.00  0.00    +0.000 HD
ATOM     18  H   UNL     1     -63.100 -47.189 -61.816  0.00  0.00    +0.000 HD
ENDROOT
BRANCH   5  19
ATOM     19  C   UNL     1     -60.105 -44.042 -58.330  0.00  0.00    +0.000 A 
ATOM     20  N   UNL     1     -59.647 -44.489 -57.128  0.00  0.00    +0.000 NA
ATOM     21  C   UNL     1     -58.717 -43.729 -56.509  0.00  0.00    +0.000 A 
ATOM     22  C   UNL     1     -58.213 -42.547 -57.020  0.00  0.00    +0.000 A 
ATOM     23  C   UNL     1     -58.697 -42.117 -58.249  0.00  0.00    +0.000 A 
ATOM     24  C   UNL     1     -59.655 -42.867 -58.920  0.00  0.00    +0.000 A 
ENDBRANCH   5  19
BRANCH  14  25
ATOM     25  O   UNL     1     -64.912 -44.875 -54.793  0.00  0.00    +0.000 OA
ATOM     26  C   UNL     1     -63.513 -44.907 -54.668  0.00  0.00    +0.000 C 
ENDBRANCH  14  25
BRANCH  15  27
ATOM     27  O   UNL     1     -67.264 -46.459 -54.678  0.00  0.00    +0.000 OA
ATOM     28  C   UNL     1     -68.001 -47.655 -54.611  0.00  0.00    +0.000 C 
ENDBRANCH  15  27
TORSDOF 3
ENDMDL
MODEL 9
REMARK VINA RESULT:      -5.3     34.934     39.206
REMARK  Name = CP466722.pdbqt.pdb
REMARK  3 active torsions:
REMARK  status: ('A' for Active; 'I' for Inactive)
REMARK    1  A    between atoms: C_5  and  C_23
REMARK    2  A    between atoms: C_14  and  O_16
REMARK    3  A    between atoms: C_15  and  O_18
REMARK                            x       y       z     vdW  Elec       q    Type
REMARK                         _______ _______ _______ _____ _____    ______ ____
ROOT
ATOM      1  N   UNL     1     -63.586 -53.757 -18.640  0.00  0.00    +0.000 N 
ATOM      2  N   UNL     1     -62.714 -54.624 -19.207  0.00  0.00    +0.000 NA
ATOM      3  N   UNL     1     -63.081 -52.856 -20.595  0.00  0.00    +0.000 NA
ATOM      4  C   UNL     1     -63.781 -52.678 -19.504  0.00  0.00    +0.000 A 
ATOM      5  C   UNL     1     -62.432 -54.051 -20.387  0.00  0.00    +0.000 A 
ATOM      6  C   UNL     1     -64.206 -53.993 -17.367  0.00  0.00    +0.000 A 
ATOM      7  N   UNL     1     -65.162 -53.108 -16.978  0.00  0.00    +0.000 NA
ATOM      8  C   UNL     1     -65.755 -53.342 -15.802  0.00  0.00    +0.000 A 
ATOM      9  N   UNL     1     -65.491 -54.371 -14.991  0.00  0.00    +0.000 NA
ATOM     10  C   UNL     1     -64.552 -55.235 -15.378  0.00  0.00    +0.000 A 
ATOM     11  C   UNL     1     -63.843 -55.104 -16.580  0.00  0.00    +0.000 A 
ATOM     12  C   UNL     1     -64.276 -56.313 -14.548  0.00  0.00    +0.000 A 
ATOM     13  C   UNL     1     -62.843 -56.061 -16.877  0.00  0.00    +0.000 A 
ATOM     14  C   UNL     1     -62.550 -57.115 -16.020  0.00  0.00    +0.000 A 
ATOM     15  C   UNL     1     -63.313 -57.272 -14.869  0.00  0.00    +0.000 A 
ATOM     16  N   UNL     1     -64.567 -51.615 -19.243  0.00  0.00    +0.000 N 
ATOM     17  H   UNL     1     -64.830 -51.012 -20.016  0.00  0.00    +0.000 HD
ATOM     18  H   UNL     1     -65.240 -51.664 -18.480  0.00  0.00    +0.000 HD
ENDROOT
BRANCH   5  19
ATOM     19  C   UNL     1     -61.524 -54.627 -21.383  0.00  0.00    +0.000 A 
ATOM     20  N   UNL     1     -62.067 -55.348 -22.401  0.00  0.00    +0.000 NA
ATOM     21  C   UNL     1     -61.210 -55.870 -23.306  0.00  0.00    +0.000 A 
ATOM     22  C   UNL     1     -59.836 -55.711 -23.256  0.00  0.00    +0.000 A 
ATOM     23  C   UNL     1     -59.311 -54.968 -22.207  0.00  0.00    +0.000 A 
ATOM     24  C   UNL     1     -60.157 -54.415 -21.254  0.00  0.00    +0.000 A 
ENDBRANCH   5  19
BRANCH  14  25
ATOM     25  O   UNL     1     -61.583 -58.008 -16.395  0.00  0.00    +0.000 OA
ATOM     26  C   UNL     1     -60.769 -57.458 -17.400  0.00  0.00    +0.000 C 
ENDBRANCH  14  25
BRANCH  15  27
ATOM     27  O   UNL     1     -63.078 -58.305 -14.002  0.00  0.00    +0.000 OA
ATOM     28  C   UNL     1     -64.282 -58.721 -13.406  0.00  0.00    +0.000 C 
ENDBRANCH  15  27
TORSDOF 3
ENDMDL
