MODEL 1
REMARK VINA RESULT:      -6.1      0.000      0.000
REMARK  Name = Curcumin.pdbqt.pdb
REMARK  8 active torsions:
REMARK  status: ('A' for Active; 'I' for Inactive)
REMARK    1  A    between atoms: C_2  and  C_4
REMARK    2  A    between atoms: C_5  and  C_6
REMARK    3  A    between atoms: C_8  and  O_12
REMARK    4  A    between atoms: C_9  and  O_14
REMARK    5  A    between atoms: C_16  and  C_18
REMARK    6  A    between atoms: C_19  and  C_20
REMARK    7  A    between atoms: C_22  and  O_26
REMARK    8  A    between atoms: C_23  and  O_28
REMARK                            x       y       z     vdW  Elec       q    Type
REMARK                         _______ _______ _______ _____ _____    ______ ____
ROOT
ATOM      1  C   UNL     1     -71.483 -57.216 -28.961  0.00  0.00    +0.000 C 
ATOM      2  C   UNL     1     -70.620 -56.400 -29.749  0.00  0.00    +0.000 C 
ATOM      3  O   UNL     1     -70.453 -55.228 -29.447  0.00  0.00    +0.000 OA
ATOM      4  C   UNL     1     -72.350 -58.030 -28.176  0.00  0.00    +0.000 C 
ATOM      5  O   UNL     1     -72.767 -59.086 -28.629  0.00  0.00    +0.000 OA
ENDROOT
BRANCH   2   6
ATOM      6  C   UNL     1     -69.947 -56.963 -30.892  0.00  0.00    +0.000 C 
ATOM      7  C   UNL     1     -69.386 -57.430 -31.846  0.00  0.00    +0.000 C 
BRANCH   7   8
ATOM      8  C   UNL     1     -68.718 -57.987 -32.977  0.00  0.00    +0.000 A 
ATOM      9  C   UNL     1     -68.309 -59.319 -32.957  0.00  0.00    +0.000 A 
ATOM     10  C   UNL     1     -67.654 -59.881 -34.057  0.00  0.00    +0.000 A 
ATOM     11  C   UNL     1     -67.416 -59.080 -35.178  0.00  0.00    +0.000 A 
ATOM     12  C   UNL     1     -67.824 -57.747 -35.201  0.00  0.00    +0.000 A 
ATOM     13  C   UNL     1     -68.475 -57.200 -34.099  0.00  0.00    +0.000 A 
BRANCH  10  14
ATOM     14  O   UNL     1     -67.225 -61.183 -34.109  0.00  0.00    +0.000 OA
ATOM     15  C   UNL     1     -68.153 -62.120 -34.577  0.00  0.00    +0.000 C 
ENDBRANCH  10  14
BRANCH  11  16
ATOM     16  O   UNL     1     -66.783 -59.541 -36.299  0.00  0.00    +0.000 OA
ATOM     17  H   UNL     1     -67.266 -60.292 -36.682  0.00  0.00    +0.000 HD
ENDBRANCH  11  16
ENDBRANCH   7   8
ENDBRANCH   2   6
BRANCH   4  18
ATOM     18  C   UNL     1     -72.728 -57.602 -26.853  0.00  0.00    +0.000 C 
ATOM     19  C   UNL     1     -73.039 -57.246 -25.748  0.00  0.00    +0.000 C 
BRANCH  19  20
ATOM     20  C   UNL     1     -73.405 -56.824 -24.437  0.00  0.00    +0.000 A 
ATOM     21  C   UNL     1     -74.182 -55.679 -24.267  0.00  0.00    +0.000 A 
ATOM     22  C   UNL     1     -74.549 -55.252 -22.988  0.00  0.00    +0.000 A 
ATOM     23  C   UNL     1     -74.123 -55.995 -21.884  0.00  0.00    +0.000 A 
ATOM     24  C   UNL     1     -73.346 -57.141 -22.048  0.00  0.00    +0.000 A 
ATOM     25  C   UNL     1     -72.987 -57.555 -23.327  0.00  0.00    +0.000 A 
BRANCH  22  26
ATOM     26  O   UNL     1     -75.311 -54.137 -22.733  0.00  0.00    +0.000 OA
ATOM     27  C   UNL     1     -75.194 -53.097 -23.667  0.00  0.00    +0.000 C 
ENDBRANCH  22  26
BRANCH  23  28
ATOM     28  O   UNL     1     -74.472 -55.594 -20.624  0.00  0.00    +0.000 OA
ATOM     29  H   UNL     1     -74.585 -54.626 -20.625  0.00  0.00    +0.000 HD
ENDBRANCH  23  28
ENDBRANCH  19  20
ENDBRANCH   4  18
TORSDOF 8
ENDMDL
MODEL 2
REMARK VINA RESULT:      -6.1      0.081     11.862
REMARK  Name = Curcumin.pdbqt.pdb
REMARK  8 active torsions:
REMARK  status: ('A' for Active; 'I' for Inactive)
REMARK    1  A    between atoms: C_2  and  C_4
REMARK    2  A    between atoms: C_5  and  C_6
REMARK    3  A    between atoms: C_8  and  O_12
REMARK    4  A    between atoms: C_9  and  O_14
REMARK    5  A    between atoms: C_16  and  C_18
REMARK    6  A    between atoms: C_19  and  C_20
REMARK    7  A    between atoms: C_22  and  O_26
REMARK    8  A    between atoms: C_23  and  O_28
REMARK                            x       y       z     vdW  Elec       q    Type
REMARK                         _______ _______ _______ _____ _____    ______ ____
ROOT
ATOM      1  C   UNL     1     -71.472 -57.199 -28.965  0.00  0.00    +0.000 C 
ATOM      2  C   UNL     1     -72.349 -58.010 -28.187  0.00  0.00    +0.000 C 
ATOM      3  O   UNL     1     -72.768 -59.061 -28.648  0.00  0.00    +0.000 OA
ATOM      4  C   UNL     1     -70.599 -56.386 -29.745  0.00  0.00    +0.000 C 
ATOM      5  O   UNL     1     -70.425 -55.215 -29.440  0.00  0.00    +0.000 OA
ENDROOT
BRANCH   2   6
ATOM      6  C   UNL     1     -72.732 -57.587 -26.864  0.00  0.00    +0.000 C 
ATOM      7  C   UNL     1     -73.049 -57.235 -25.761  0.00  0.00    +0.000 C 
BRANCH   7   8
ATOM      8  C   UNL     1     -73.428 -56.814 -24.451  0.00  0.00    +0.000 A 
ATOM      9  C   UNL     1     -74.195 -55.663 -24.285  0.00  0.00    +0.000 A 
ATOM     10  C   UNL     1     -74.576 -55.237 -23.009  0.00  0.00    +0.000 A 
ATOM     11  C   UNL     1     -74.169 -55.987 -21.901  0.00  0.00    +0.000 A 
ATOM     12  C   UNL     1     -73.401 -57.139 -22.064  0.00  0.00    +0.000 A 
ATOM     13  C   UNL     1     -73.029 -57.553 -23.341  0.00  0.00    +0.000 A 
BRANCH  10  14
ATOM     14  O   UNL     1     -75.331 -54.116 -22.769  0.00  0.00    +0.000 OA
ATOM     15  C   UNL     1     -75.476 -53.229 -23.841  0.00  0.00    +0.000 C 
ENDBRANCH  10  14
BRANCH  11  16
ATOM     16  O   UNL     1     -74.492 -55.649 -20.616  0.00  0.00    +0.000 OA
ATOM     17  H   UNL     1     -73.690 -55.548 -20.076  0.00  0.00    +0.000 HD
ENDBRANCH  11  16
ENDBRANCH   7   8
ENDBRANCH   2   6
BRANCH   4  18
ATOM     18  C   UNL     1     -69.926 -56.951 -30.887  0.00  0.00    +0.000 C 
ATOM     19  C   UNL     1     -69.364 -57.418 -31.841  0.00  0.00    +0.000 C 
BRANCH  19  20
ATOM     20  C   UNL     1     -68.699 -57.969 -32.974  0.00  0.00    +0.000 A 
ATOM     21  C   UNL     1     -68.317 -59.310 -32.971  0.00  0.00    +0.000 A 
ATOM     22  C   UNL     1     -67.663 -59.866 -34.075  0.00  0.00    +0.000 A 
ATOM     23  C   UNL     1     -67.401 -59.051 -35.180  0.00  0.00    +0.000 A 
ATOM     24  C   UNL     1     -67.781 -57.709 -35.188  0.00  0.00    +0.000 A 
ATOM     25  C   UNL     1     -68.430 -57.169 -34.083  0.00  0.00    +0.000 A 
BRANCH  22  26
ATOM     26  O   UNL     1     -67.254 -61.175 -34.154  0.00  0.00    +0.000 OA
ATOM     27  C   UNL     1     -68.245 -62.097 -34.526  0.00  0.00    +0.000 C 
ENDBRANCH  22  26
BRANCH  23  28
ATOM     28  O   UNL     1     -66.762 -59.576 -36.269  0.00  0.00    +0.000 OA
ATOM     29  H   UNL     1     -67.404 -60.095 -36.788  0.00  0.00    +0.000 HD
ENDBRANCH  23  28
ENDBRANCH  19  20
ENDBRANCH   4  18
TORSDOF 8
ENDMDL
MODEL 3
REMARK VINA RESULT:      -6.0      0.892      1.688
REMARK  Name = Curcumin.pdbqt.pdb
REMARK  8 active torsions:
REMARK  status: ('A' for Active; 'I' for Inactive)
REMARK    1  A    between atoms: C_2  and  C_4
REMARK    2  A    between atoms: C_5  and  C_6
REMARK    3  A    between atoms: C_8  and  O_12
REMARK    4  A    between atoms: C_9  and  O_14
REMARK    5  A    between atoms: C_16  and  C_18
REMARK    6  A    between atoms: C_19  and  C_20
REMARK    7  A    between atoms: C_22  and  O_26
REMARK    8  A    between atoms: C_23  and  O_28
REMARK                            x       y       z     vdW  Elec       q    Type
REMARK                         _______ _______ _______ _____ _____    ______ ____
ROOT
ATOM      1  C   UNL     1     -71.549 -56.943 -28.804  0.00  0.00    +0.000 C 
ATOM      2  C   UNL     1     -70.629 -56.143 -29.541  0.00  0.00    +0.000 C 
ATOM      3  O   UNL     1     -70.405 -54.995 -29.186  0.00  0.00    +0.000 OA
ATOM      4  C   UNL     1     -72.473 -57.740 -28.068  0.00  0.00    +0.000 C 
ATOM      5  O   UNL     1     -72.938 -58.752 -28.573  0.00  0.00    +0.000 OA
ENDROOT
BRANCH   2   6
ATOM      6  C   UNL     1     -69.966 -56.692 -30.697  0.00  0.00    +0.000 C 
ATOM      7  C   UNL     1     -69.415 -57.149 -31.661  0.00  0.00    +0.000 C 
BRANCH   7   8
ATOM      8  C   UNL     1     -68.757 -57.691 -32.805  0.00  0.00    +0.000 A 
ATOM      9  C   UNL     1     -69.034 -57.181 -34.072  0.00  0.00    +0.000 A 
ATOM     10  C   UNL     1     -68.399 -57.700 -35.205  0.00  0.00    +0.000 A 
ATOM     11  C   UNL     1     -67.481 -58.742 -35.041  0.00  0.00    +0.000 A 
ATOM     12  C   UNL     1     -67.202 -59.254 -33.775  0.00  0.00    +0.000 A 
ATOM     13  C   UNL     1     -67.841 -58.728 -32.656  0.00  0.00    +0.000 A 
BRANCH  10  14
ATOM     14  O   UNL     1     -68.620 -57.249 -36.482  0.00  0.00    +0.000 OA
ATOM     15  C   UNL     1     -69.833 -57.627 -37.068  0.00  0.00    +0.000 C 
ENDBRANCH  10  14
BRANCH  11  16
ATOM     16  O   UNL     1     -66.811 -59.313 -36.088  0.00  0.00    +0.000 OA
ATOM     17  H   UNL     1     -67.122 -58.949 -36.934  0.00  0.00    +0.000 HD
ENDBRANCH  11  16
ENDBRANCH   7   8
ENDBRANCH   2   6
BRANCH   4  18
ATOM     18  C   UNL     1     -72.852 -57.349 -26.735  0.00  0.00    +0.000 C 
ATOM     19  C   UNL     1     -73.169 -57.018 -25.623  0.00  0.00    +0.000 C 
BRANCH  19  20
ATOM     20  C   UNL     1     -73.544 -56.622 -24.307  0.00  0.00    +0.000 A 
ATOM     21  C   UNL     1     -74.328 -55.484 -24.121  0.00  0.00    +0.000 A 
ATOM     22  C   UNL     1     -74.704 -55.082 -22.836  0.00  0.00    +0.000 A 
ATOM     23  C   UNL     1     -74.280 -55.844 -21.744  0.00  0.00    +0.000 A 
ATOM     24  C   UNL     1     -73.496 -56.982 -21.924  0.00  0.00    +0.000 A 
ATOM     25  C   UNL     1     -73.128 -57.371 -23.208  0.00  0.00    +0.000 A 
BRANCH  22  26
ATOM     26  O   UNL     1     -75.473 -53.977 -22.565  0.00  0.00    +0.000 OA
ATOM     27  C   UNL     1     -75.158 -52.824 -23.302  0.00  0.00    +0.000 C 
ENDBRANCH  22  26
BRANCH  23  28
ATOM     28  O   UNL     1     -74.637 -55.467 -20.478  0.00  0.00    +0.000 OA
ATOM     29  H   UNL     1     -73.960 -55.786 -19.854  0.00  0.00    +0.000 HD
ENDBRANCH  23  28
ENDBRANCH  19  20
ENDBRANCH   4  18
TORSDOF 8
ENDMDL
MODEL 4
REMARK VINA RESULT:      -5.7      2.792      4.556
REMARK  Name = Curcumin.pdbqt.pdb
REMARK  8 active torsions:
REMARK  status: ('A' for Active; 'I' for Inactive)
REMARK    1  A    between atoms: C_2  and  C_4
REMARK    2  A    between atoms: C_5  and  C_6
REMARK    3  A    between atoms: C_8  and  O_12
REMARK    4  A    between atoms: C_9  and  O_14
REMARK    5  A    between atoms: C_16  and  C_18
REMARK    6  A    between atoms: C_19  and  C_20
REMARK    7  A    between atoms: C_22  and  O_26
REMARK    8  A    between atoms: C_23  and  O_28
REMARK                            x       y       z     vdW  Elec       q    Type
REMARK                         _______ _______ _______ _____ _____    ______ ____
ROOT
ATOM      1  C   UNL     1     -69.553 -56.992 -31.853  0.00  0.00    +0.000 C 
ATOM      2  C   UNL     1     -68.473 -57.672 -32.487  0.00  0.00    +0.000 C 
ATOM      3  O   UNL     1     -67.694 -58.330 -31.814  0.00  0.00    +0.000 OA
ATOM      4  C   UNL     1     -70.630 -56.309 -31.216  0.00  0.00    +0.000 C 
ATOM      5  O   UNL     1     -71.217 -55.416 -31.810  0.00  0.00    +0.000 OA
ENDROOT
BRANCH   2   6
ATOM      6  C   UNL     1     -68.310 -57.583 -33.916  0.00  0.00    +0.000 C 
ATOM      7  C   UNL     1     -68.174 -57.506 -35.107  0.00  0.00    +0.000 C 
BRANCH   7   8
ATOM      8  C   UNL     1     -68.010 -57.415 -36.521  0.00  0.00    +0.000 A 
ATOM      9  C   UNL     1     -67.798 -56.174 -37.118  0.00  0.00    +0.000 A 
ATOM     10  C   UNL     1     -67.635 -56.067 -38.503  0.00  0.00    +0.000 A 
ATOM     11  C   UNL     1     -67.690 -57.230 -39.278  0.00  0.00    +0.000 A 
ATOM     12  C   UNL     1     -67.903 -58.473 -38.683  0.00  0.00    +0.000 A 
ATOM     13  C   UNL     1     -68.064 -58.565 -37.303  0.00  0.00    +0.000 A 
BRANCH  10  14
ATOM     14  O   UNL     1     -67.421 -54.881 -39.160  0.00  0.00    +0.000 OA
ATOM     15  C   UNL     1     -68.559 -54.114 -39.432  0.00  0.00    +0.000 C 
ENDBRANCH  10  14
BRANCH  11  16
ATOM     16  O   UNL     1     -67.543 -57.225 -40.637  0.00  0.00    +0.000 OA
ATOM     17  H   UNL     1     -67.990 -57.991 -41.034  0.00  0.00    +0.000 HD
ENDBRANCH  11  16
ENDBRANCH   7   8
ENDBRANCH   2   6
BRANCH   4  18
ATOM     18  C   UNL     1     -71.019 -56.677 -29.879  0.00  0.00    +0.000 C 
ATOM     19  C   UNL     1     -71.344 -56.988 -28.764  0.00  0.00    +0.000 C 
BRANCH  19  20
ATOM     20  C   UNL     1     -71.730 -57.360 -27.444  0.00  0.00    +0.000 A 
ATOM     21  C   UNL     1     -72.911 -56.859 -26.898  0.00  0.00    +0.000 A 
ATOM     22  C   UNL     1     -73.303 -57.214 -25.604  0.00  0.00    +0.000 A 
ATOM     23  C   UNL     1     -72.489 -58.082 -24.871  0.00  0.00    +0.000 A 
ATOM     24  C   UNL     1     -71.308 -58.586 -25.412  0.00  0.00    +0.000 A 
ATOM     25  C   UNL     1     -70.928 -58.224 -26.701  0.00  0.00    +0.000 A 
BRANCH  22  26
ATOM     26  O   UNL     1     -74.449 -56.766 -24.992  0.00  0.00    +0.000 OA
ATOM     27  C   UNL     1     -74.447 -55.412 -24.621  0.00  0.00    +0.000 C 
ENDBRANCH  22  26
BRANCH  23  28
ATOM     28  O   UNL     1     -72.856 -58.441 -23.603  0.00  0.00    +0.000 OA
ATOM     29  H   UNL     1     -72.202 -59.076 -23.257  0.00  0.00    +0.000 HD
ENDBRANCH  23  28
ENDBRANCH  19  20
ENDBRANCH   4  18
TORSDOF 8
ENDMDL
MODEL 5
REMARK VINA RESULT:      -5.5      3.064     11.865
REMARK  Name = Curcumin.pdbqt.pdb
REMARK  8 active torsions:
REMARK  status: ('A' for Active; 'I' for Inactive)
REMARK    1  A    between atoms: C_2  and  C_4
REMARK    2  A    between atoms: C_5  and  C_6
REMARK    3  A    between atoms: C_8  and  O_12
REMARK    4  A    between atoms: C_9  and  O_14
REMARK    5  A    between atoms: C_16  and  C_18
REMARK    6  A    between atoms: C_19  and  C_20
REMARK    7  A    between atoms: C_22  and  O_26
REMARK    8  A    between atoms: C_23  and  O_28
REMARK                            x       y       z     vdW  Elec       q    Type
REMARK                         _______ _______ _______ _____ _____    ______ ____
ROOT
ATOM      1  C   UNL     1     -69.680 -57.420 -31.973  0.00  0.00    +0.000 C 
ATOM      2  C   UNL     1     -70.901 -57.011 -31.363  0.00  0.00    +0.000 C 
ATOM      3  O   UNL     1     -71.670 -56.284 -31.974  0.00  0.00    +0.000 OA
ATOM      4  C   UNL     1     -68.457 -57.824 -32.584  0.00  0.00    +0.000 C 
ATOM      5  O   UNL     1     -67.556 -58.277 -31.894  0.00  0.00    +0.000 OA
ENDROOT
BRANCH   2   6
ATOM      6  C   UNL     1     -71.223 -57.461 -30.032  0.00  0.00    +0.000 C 
ATOM      7  C   UNL     1     -71.492 -57.836 -28.924  0.00  0.00    +0.000 C 
BRANCH   7   8
ATOM      8  C   UNL     1     -71.810 -58.283 -27.607  0.00  0.00    +0.000 A 
ATOM      9  C   UNL     1     -71.667 -59.629 -27.276  0.00  0.00    +0.000 A 
ATOM     10  C   UNL     1     -71.973 -60.085 -25.990  0.00  0.00    +0.000 A 
ATOM     11  C   UNL     1     -72.427 -59.163 -25.041  0.00  0.00    +0.000 A 
ATOM     12  C   UNL     1     -72.571 -57.816 -25.369  0.00  0.00    +0.000 A 
ATOM     13  C   UNL     1     -72.262 -57.376 -26.654  0.00  0.00    +0.000 A 
BRANCH  10  14
ATOM     14  O   UNL     1     -71.856 -61.393 -25.593  0.00  0.00    +0.000 OA
ATOM     15  C   UNL     1     -72.877 -62.257 -26.006  0.00  0.00    +0.000 C 
ENDBRANCH  10  14
BRANCH  11  16
ATOM     16  O   UNL     1     -72.751 -59.514 -23.760  0.00  0.00    +0.000 OA
ATOM     17  H   UNL     1     -72.905 -60.472 -23.695  0.00  0.00    +0.000 HD
ENDBRANCH  11  16
ENDBRANCH   7   8
ENDBRANCH   2   6
BRANCH   4  18
ATOM     18  C   UNL     1     -68.293 -57.696 -34.009  0.00  0.00    +0.000 C 
ATOM     19  C   UNL     1     -68.151 -57.587 -35.198  0.00  0.00    +0.000 C 
BRANCH  19  20
ATOM     20  C   UNL     1     -67.980 -57.457 -36.607  0.00  0.00    +0.000 A 
ATOM     21  C   UNL     1     -67.842 -56.191 -37.175  0.00  0.00    +0.000 A 
ATOM     22  C   UNL     1     -67.673 -56.046 -38.555  0.00  0.00    +0.000 A 
ATOM     23  C   UNL     1     -67.646 -57.194 -39.352  0.00  0.00    +0.000 A 
ATOM     24  C   UNL     1     -67.784 -58.462 -38.789  0.00  0.00    +0.000 A 
ATOM     25  C   UNL     1     -67.951 -58.592 -37.414  0.00  0.00    +0.000 A 
BRANCH  22  26
ATOM     26  O   UNL     1     -67.530 -54.839 -39.195  0.00  0.00    +0.000 OA
ATOM     27  C   UNL     1     -68.716 -54.114 -39.392  0.00  0.00    +0.000 C 
ENDBRANCH  22  26
BRANCH  23  28
ATOM     28  O   UNL     1     -67.482 -57.073 -40.705  0.00  0.00    +0.000 OA
ATOM     29  H   UNL     1     -66.532 -57.141 -40.911  0.00  0.00    +0.000 HD
ENDBRANCH  23  28
ENDBRANCH  19  20
ENDBRANCH   4  18
TORSDOF 8
ENDMDL
MODEL 6
REMARK VINA RESULT:      -5.4     23.249     28.256
REMARK  Name = Curcumin.pdbqt.pdb
REMARK  8 active torsions:
REMARK  status: ('A' for Active; 'I' for Inactive)
REMARK    1  A    between atoms: C_2  and  C_4
REMARK    2  A    between atoms: C_5  and  C_6
REMARK    3  A    between atoms: C_8  and  O_12
REMARK    4  A    between atoms: C_9  and  O_14
REMARK    5  A    between atoms: C_16  and  C_18
REMARK    6  A    between atoms: C_19  and  C_20
REMARK    7  A    between atoms: C_22  and  O_26
REMARK    8  A    between atoms: C_23  and  O_28
REMARK                            x       y       z     vdW  Elec       q    Type
REMARK                         _______ _______ _______ _____ _____    ______ ____
ROOT
ATOM      1  C   UNL     1     -63.681 -45.939 -52.647  0.00  0.00    +0.000 C 
ATOM      2  C   UNL     1     -63.864 -44.976 -53.682  0.00  0.00    +0.000 C 
ATOM      3  O   UNL     1     -64.083 -43.809 -53.391  0.00  0.00    +0.000 OA
ATOM      4  C   UNL     1     -63.503 -46.901 -51.612  0.00  0.00    +0.000 C 
ATOM      5  O   UNL     1     -63.596 -48.093 -51.869  0.00  0.00    +0.000 OA
ENDROOT
BRANCH   2   6
ATOM      6  C   UNL     1     -63.785 -45.382 -55.062  0.00  0.00    +0.000 C 
ATOM      7  C   UNL     1     -63.722 -45.721 -56.213  0.00  0.00    +0.000 C 
BRANCH   7   8
ATOM      8  C   UNL     1     -63.645 -46.122 -57.580  0.00  0.00    +0.000 A 
ATOM      9  C   UNL     1     -62.407 -46.189 -58.216  0.00  0.00    +0.000 A 
ATOM     10  C   UNL     1     -62.313 -46.580 -59.555  0.00  0.00    +0.000 A 
ATOM     11  C   UNL     1     -63.487 -46.902 -60.245  0.00  0.00    +0.000 A 
ATOM     12  C   UNL     1     -64.727 -46.835 -59.610  0.00  0.00    +0.000 A 
ATOM     13  C   UNL     1     -64.806 -46.444 -58.277  0.00  0.00    +0.000 A 
BRANCH  10  14
ATOM     14  O   UNL     1     -61.131 -46.670 -60.246  0.00  0.00    +0.000 OA
ATOM     15  C   UNL     1     -60.788 -45.562 -61.028  0.00  0.00    +0.000 C 
ENDBRANCH  10  14
BRANCH  11  16
ATOM     16  O   UNL     1     -63.495 -47.294 -61.554  0.00  0.00    +0.000 OA
ATOM     17  H   UNL     1     -63.809 -48.210 -61.637  0.00  0.00    +0.000 HD
ENDBRANCH  11  16
ENDBRANCH   7   8
ENDBRANCH   2   6
BRANCH   4  18
ATOM     18  C   UNL     1     -63.215 -46.464 -50.270  0.00  0.00    +0.000 C 
ATOM     19  C   UNL     1     -62.978 -46.101 -49.149  0.00  0.00    +0.000 C 
BRANCH  19  20
ATOM     20  C   UNL     1     -62.700 -45.673 -47.818  0.00  0.00    +0.000 A 
ATOM     21  C   UNL     1     -61.423 -45.844 -47.287  0.00  0.00    +0.000 A 
ATOM     22  C   UNL     1     -61.133 -45.429 -45.984  0.00  0.00    +0.000 A 
ATOM     23  C   UNL     1     -62.149 -44.841 -45.226  0.00  0.00    +0.000 A 
ATOM     24  C   UNL     1     -63.429 -44.668 -45.752  0.00  0.00    +0.000 A 
ATOM     25  C   UNL     1     -63.704 -45.085 -47.051  0.00  0.00    +0.000 A 
BRANCH  22  26
ATOM     26  O   UNL     1     -59.904 -45.560 -45.384  0.00  0.00    +0.000 OA
ATOM     27  C   UNL     1     -58.797 -45.374 -46.227  0.00  0.00    +0.000 C 
ENDBRANCH  22  26
BRANCH  23  28
ATOM     28  O   UNL     1     -61.887 -44.429 -43.948  0.00  0.00    +0.000 OA
ATOM     29  H   UNL     1     -62.265 -43.540 -43.823  0.00  0.00    +0.000 HD
ENDBRANCH  23  28
ENDBRANCH  19  20
ENDBRANCH   4  18
TORSDOF 8
ENDMDL
MODEL 7
REMARK VINA RESULT:      -5.4     10.865     16.295
REMARK  Name = Curcumin.pdbqt.pdb
REMARK  8 active torsions:
REMARK  status: ('A' for Active; 'I' for Inactive)
REMARK    1  A    between atoms: C_2  and  C_4
REMARK    2  A    between atoms: C_5  and  C_6
REMARK    3  A    between atoms: C_8  and  O_12
REMARK    4  A    between atoms: C_9  and  O_14
REMARK    5  A    between atoms: C_16  and  C_18
REMARK    6  A    between atoms: C_19  and  C_20
REMARK    7  A    between atoms: C_22  and  O_26
REMARK    8  A    between atoms: C_23  and  O_28
REMARK                            x       y       z     vdW  Elec       q    Type
REMARK                         _______ _______ _______ _____ _____    ______ ____
ROOT
ATOM      1  C   UNL     1     -60.710 -55.402 -23.915  0.00  0.00    +0.000 C 
ATOM      2  C   UNL     1     -61.394 -54.245 -23.441  0.00  0.00    +0.000 C 
ATOM      3  O   UNL     1     -61.524 -53.276 -24.174  0.00  0.00    +0.000 OA
ATOM      4  C   UNL     1     -60.021 -56.556 -24.389  0.00  0.00    +0.000 C 
ATOM      5  O   UNL     1     -59.615 -57.390 -23.593  0.00  0.00    +0.000 OA
ENDROOT
BRANCH   2   6
ATOM      6  C   UNL     1     -61.932 -54.228 -22.104  0.00  0.00    +0.000 C 
ATOM      7  C   UNL     1     -62.378 -54.214 -20.989  0.00  0.00    +0.000 C 
BRANCH   7   8
ATOM      8  C   UNL     1     -62.909 -54.196 -19.665  0.00  0.00    +0.000 A 
ATOM      9  C   UNL     1     -64.229 -53.806 -19.451  0.00  0.00    +0.000 A 
ATOM     10  C   UNL     1     -64.766 -53.782 -18.160  0.00  0.00    +0.000 A 
ATOM     11  C   UNL     1     -63.951 -54.157 -17.087  0.00  0.00    +0.000 A 
ATOM     12  C   UNL     1     -62.629 -54.547 -17.298  0.00  0.00    +0.000 A 
ATOM     13  C   UNL     1     -62.108 -54.566 -18.589  0.00  0.00    +0.000 A 
BRANCH  10  14
ATOM     14  O   UNL     1     -66.056 -53.411 -17.873  0.00  0.00    +0.000 OA
ATOM     15  C   UNL     1     -66.432 -52.126 -18.279  0.00  0.00    +0.000 C 
ENDBRANCH  10  14
BRANCH  11  16
ATOM     16  O   UNL     1     -64.387 -54.165 -15.791  0.00  0.00    +0.000 OA
ATOM     17  H   UNL     1     -64.042 -54.941 -15.318  0.00  0.00    +0.000 HD
ENDBRANCH  11  16
ENDBRANCH   7   8
ENDBRANCH   2   6
BRANCH   4  18
ATOM     18  C   UNL     1     -59.808 -56.732 -25.803  0.00  0.00    +0.000 C 
ATOM     19  C   UNL     1     -59.627 -56.876 -26.982  0.00  0.00    +0.000 C 
BRANCH  19  20
ATOM     20  C   UNL     1     -59.409 -57.045 -28.380  0.00  0.00    +0.000 A 
ATOM     21  C   UNL     1     -58.204 -56.634 -28.950  0.00  0.00    +0.000 A 
ATOM     22  C   UNL     1     -57.974 -56.793 -30.319  0.00  0.00    +0.000 A 
ATOM     23  C   UNL     1     -58.975 -57.372 -31.105  0.00  0.00    +0.000 A 
ATOM     24  C   UNL     1     -60.181 -57.785 -30.541  0.00  0.00    +0.000 A 
ATOM     25  C   UNL     1     -60.397 -57.621 -29.176  0.00  0.00    +0.000 A 
BRANCH  22  26
ATOM     26  O   UNL     1     -56.819 -56.416 -30.960  0.00  0.00    +0.000 OA
ATOM     27  C   UNL     1     -55.670 -57.144 -30.612  0.00  0.00    +0.000 C 
ENDBRANCH  22  26
BRANCH  23  28
ATOM     28  O   UNL     1     -58.769 -57.536 -32.447  0.00  0.00    +0.000 OA
ATOM     29  H   UNL     1     -58.057 -58.189 -32.576  0.00  0.00    +0.000 HD
ENDBRANCH  23  28
ENDBRANCH  19  20
ENDBRANCH   4  18
TORSDOF 8
ENDMDL
MODEL 8
REMARK VINA RESULT:      -5.4     11.999     15.421
REMARK  Name = Curcumin.pdbqt.pdb
REMARK  8 active torsions:
REMARK  status: ('A' for Active; 'I' for Inactive)
REMARK    1  A    between atoms: C_2  and  C_4
REMARK    2  A    between atoms: C_5  and  C_6
REMARK    3  A    between atoms: C_8  and  O_12
REMARK    4  A    between atoms: C_9  and  O_14
REMARK    5  A    between atoms: C_16  and  C_18
REMARK    6  A    between atoms: C_19  and  C_20
REMARK    7  A    between atoms: C_22  and  O_26
REMARK    8  A    between atoms: C_23  and  O_28
REMARK                            x       y       z     vdW  Elec       q    Type
REMARK                         _______ _______ _______ _____ _____    ______ ____
ROOT
ATOM      1  C   UNL     1     -65.602 -53.825 -17.257  0.00  0.00    +0.000 C 
ATOM      2  C   UNL     1     -65.597 -53.247 -18.559  0.00  0.00    +0.000 C 
ATOM      3  O   UNL     1     -64.834 -53.680 -19.411  0.00  0.00    +0.000 OA
ATOM      4  C   UNL     1     -65.604 -54.402 -15.954  0.00  0.00    +0.000 C 
ATOM      5  O   UNL     1     -66.116 -53.797 -15.023  0.00  0.00    +0.000 OA
ENDROOT
BRANCH   2   6
ATOM      6  C   UNL     1     -66.491 -52.159 -18.865  0.00  0.00    +0.000 C 
ATOM      7  C   UNL     1     -67.238 -51.254 -19.120  0.00  0.00    +0.000 C 
BRANCH   7   8
ATOM      8  C   UNL     1     -68.126 -50.178 -19.421  0.00  0.00    +0.000 A 
ATOM      9  C   UNL     1     -69.085 -50.327 -20.421  0.00  0.00    +0.000 A 
ATOM     10  C   UNL     1     -69.963 -49.284 -20.729  0.00  0.00    +0.000 A 
ATOM     11  C   UNL     1     -69.860 -48.086 -20.014  0.00  0.00    +0.000 A 
ATOM     12  C   UNL     1     -68.901 -47.934 -19.013  0.00  0.00    +0.000 A 
ATOM     13  C   UNL     1     -68.033 -48.982 -18.716  0.00  0.00    +0.000 A 
BRANCH  10  14
ATOM     14  O   UNL     1     -70.932 -49.358 -21.698  0.00  0.00    +0.000 OA
ATOM     15  C   UNL     1     -72.073 -50.099 -21.372  0.00  0.00    +0.000 C 
ENDBRANCH  10  14
BRANCH  11  16
ATOM     16  O   UNL     1     -70.673 -47.011 -20.243  0.00  0.00    +0.000 OA
ATOM     17  H   UNL     1     -70.656 -46.763 -21.183  0.00  0.00    +0.000 HD
ENDBRANCH  11  16
ENDBRANCH   7   8
ENDBRANCH   2   6
BRANCH   4  18
ATOM     18  C   UNL     1     -65.003 -55.694 -15.743  0.00  0.00    +0.000 C 
ATOM     19  C   UNL     1     -64.503 -56.774 -15.571  0.00  0.00    +0.000 C 
BRANCH  19  20
ATOM     20  C   UNL     1     -63.911 -58.055 -15.370  0.00  0.00    +0.000 A 
ATOM     21  C   UNL     1     -64.448 -58.926 -14.423  0.00  0.00    +0.000 A 
ATOM     22  C   UNL     1     -63.880 -60.186 -14.214  0.00  0.00    +0.000 A 
ATOM     23  C   UNL     1     -62.765 -60.554 -14.973  0.00  0.00    +0.000 A 
ATOM     24  C   UNL     1     -62.225 -59.687 -15.921  0.00  0.00    +0.000 A 
ATOM     25  C   UNL     1     -62.800 -58.435 -16.119  0.00  0.00    +0.000 A 
BRANCH  22  26
ATOM     26  O   UNL     1     -64.344 -61.103 -13.303  0.00  0.00    +0.000 OA
ATOM     27  C   UNL     1     -65.741 -61.190 -13.190  0.00  0.00    +0.000 C 
ENDBRANCH  22  26
BRANCH  23  28
ATOM     28  O   UNL     1     -62.195 -61.783 -14.783  0.00  0.00    +0.000 OA
ATOM     29  H   UNL     1     -61.424 -61.681 -14.195  0.00  0.00    +0.000 HD
ENDBRANCH  23  28
ENDBRANCH  19  20
ENDBRANCH   4  18
TORSDOF 8
ENDMDL
MODEL 9
REMARK VINA RESULT:      -5.4     10.851     11.386
REMARK  Name = Curcumin.pdbqt.pdb
REMARK  8 active torsions:
REMARK  status: ('A' for Active; 'I' for Inactive)
REMARK    1  A    between atoms: C_2  and  C_4
REMARK    2  A    between atoms: C_5  and  C_6
REMARK    3  A    between atoms: C_8  and  O_12
REMARK    4  A    between atoms: C_9  and  O_14
REMARK    5  A    between atoms: C_16  and  C_18
REMARK    6  A    between atoms: C_19  and  C_20
REMARK    7  A    between atoms: C_22  and  O_26
REMARK    8  A    between atoms: C_23  and  O_28
REMARK                            x       y       z     vdW  Elec       q    Type
REMARK                         _______ _______ _______ _____ _____    ______ ____
ROOT
ATOM      1  C   UNL     1     -60.697 -55.407 -23.912  0.00  0.00    +0.000 C 
ATOM      2  C   UNL     1     -60.032 -56.573 -24.390  0.00  0.00    +0.000 C 
ATOM      3  O   UNL     1     -59.656 -57.423 -23.597  0.00  0.00    +0.000 OA
ATOM      4  C   UNL     1     -61.357 -54.239 -23.432  0.00  0.00    +0.000 C 
ATOM      5  O   UNL     1     -61.457 -53.258 -24.155  0.00  0.00    +0.000 OA
ENDROOT
BRANCH   2   6
ATOM      6  C   UNL     1     -59.812 -56.744 -25.804  0.00  0.00    +0.000 C 
ATOM      7  C   UNL     1     -59.628 -56.885 -26.983  0.00  0.00    +0.000 C 
BRANCH   7   8
ATOM      8  C   UNL     1     -59.407 -57.054 -28.382  0.00  0.00    +0.000 A 
ATOM      9  C   UNL     1     -58.210 -56.629 -28.953  0.00  0.00    +0.000 A 
ATOM     10  C   UNL     1     -57.976 -56.787 -30.323  0.00  0.00    +0.000 A 
ATOM     11  C   UNL     1     -58.969 -57.379 -31.109  0.00  0.00    +0.000 A 
ATOM     12  C   UNL     1     -60.169 -57.805 -30.540  0.00  0.00    +0.000 A 
ATOM     13  C   UNL     1     -60.388 -57.642 -29.175  0.00  0.00    +0.000 A 
BRANCH  10  14
ATOM     14  O   UNL     1     -56.822 -56.395 -30.954  0.00  0.00    +0.000 OA
ATOM     15  C   UNL     1     -55.746 -57.286 -30.880  0.00  0.00    +0.000 C 
ENDBRANCH  10  14
BRANCH  11  16
ATOM     16  O   UNL     1     -58.833 -57.575 -32.455  0.00  0.00    +0.000 OA
ATOM     17  H   UNL     1     -58.424 -56.800 -32.875  0.00  0.00    +0.000 HD
ENDBRANCH  11  16
ENDBRANCH   7   8
ENDBRANCH   2   6
BRANCH   4  18
ATOM     18  C   UNL     1     -61.903 -54.223 -22.099  0.00  0.00    +0.000 C 
ATOM     19  C   UNL     1     -62.363 -54.207 -20.989  0.00  0.00    +0.000 C 
BRANCH  19  20
ATOM     20  C   UNL     1     -62.910 -54.186 -19.673  0.00  0.00    +0.000 A 
ATOM     21  C   UNL     1     -64.234 -53.795 -19.478  0.00  0.00    +0.000 A 
ATOM     22  C   UNL     1     -64.787 -53.770 -18.195  0.00  0.00    +0.000 A 
ATOM     23  C   UNL     1     -63.986 -54.144 -17.112  0.00  0.00    +0.000 A 
ATOM     24  C   UNL     1     -62.661 -54.536 -17.301  0.00  0.00    +0.000 A 
ATOM     25  C   UNL     1     -62.124 -54.556 -18.584  0.00  0.00    +0.000 A 
BRANCH  22  26
ATOM     26  O   UNL     1     -66.079 -53.398 -17.915  0.00  0.00    +0.000 OA
ATOM     27  C   UNL     1     -66.420 -52.082 -18.264  0.00  0.00    +0.000 C 
ENDBRANCH  22  26
BRANCH  23  28
ATOM     28  O   UNL     1     -64.508 -54.125 -15.848  0.00  0.00    +0.000 OA
ATOM     29  H   UNL     1     -63.777 -54.026 -15.210  0.00  0.00    +0.000 HD
ENDBRANCH  23  28
ENDBRANCH  19  20
ENDBRANCH   4  18
TORSDOF 8
ENDMDL
