MODEL 1
REMARK VINA RESULT:      -8.7      0.000      0.000
REMARK  Name = Cyclosporin_A.pdbqt.pdb
REMARK  4 active torsions:
REMARK  status: ('A' for Active; 'I' for Inactive)
REMARK    1  A    between atoms: N_13  and  C_36
REMARK    2  A    between atoms: C_36  and  O_70
REMARK    3  A    between atoms: C_72  and  C_73
REMARK    4  A    between atoms: C_75  and  C_76
REMARK                            x       y       z     vdW  Elec       q    Type
REMARK                         _______ _______ _______ _____ _____    ______ ____
ROOT
ATOM      1  O   UNL     1     -62.643 -69.565 -83.604  0.00  0.00    +0.000 OA
ATOM      2  O   UNL     1     -62.244 -72.914 -79.739  0.00  0.00    +0.000 OA
ATOM      3  O   UNL     1     -60.169 -70.221 -76.368  0.00  0.00    +0.000 OA
ATOM      4  O   UNL     1     -59.173 -66.148 -84.139  0.00  0.00    +0.000 OA
ATOM      5  O   UNL     1     -65.089 -71.017 -77.310  0.00  0.00    +0.000 OA
ATOM      6  O   UNL     1     -66.548 -59.967 -75.616  0.00  0.00    +0.000 OA
ATOM      7  O   UNL     1     -64.496 -64.655 -84.863  0.00  0.00    +0.000 OA
ATOM      8  O   UNL     1     -62.869 -59.473 -78.854  0.00  0.00    +0.000 OA
ATOM      9  O   UNL     1     -67.130 -64.222 -73.372  0.00  0.00    +0.000 OA
ATOM     10  O   UNL     1     -63.454 -60.969 -82.634  0.00  0.00    +0.000 OA
ATOM     11  O   UNL     1     -67.371 -67.513 -76.150  0.00  0.00    +0.000 OA
ATOM     12  N   UNL     1     -61.921 -71.247 -80.671  0.00  0.00    +0.000 NA
ATOM     13  N   UNL     1     -61.079 -68.599 -82.053  0.00  0.00    +0.000 NA
ATOM     14  N   UNL     1     -61.134 -71.495 -77.544  0.00  0.00    +0.000 NA
ATOM     15  N   UNL     1     -63.285 -69.920 -75.810  0.00  0.00    +0.000 NA
ATOM     16  N   UNL     1     -61.317 -65.697 -83.068  0.00  0.00    +0.000 NA
ATOM     17  N   UNL     1     -64.906 -61.478 -74.865  0.00  0.00    +0.000 N 
ATOM     18  N   UNL     1     -64.038 -61.225 -77.834  0.00  0.00    +0.000 N 
ATOM     19  N   UNL     1     -63.774 -61.342 -80.724  0.00  0.00    +0.000 NA
ATOM     20  N   UNL     1     -64.113 -64.558 -82.623  0.00  0.00    +0.000 NA
ATOM     21  N   UNL     1     -64.925 -67.548 -76.571  0.00  0.00    +0.000 NA
ATOM     22  N   UNL     1     -65.916 -64.354 -75.456  0.00  0.00    +0.000 NA
ATOM     23  C   UNL     1     -62.617 -70.630 -81.669  0.00  0.00    +0.000 C 
ATOM     24  C   UNL     1     -61.208 -70.877 -78.726  0.00  0.00    +0.000 C 
ATOM     25  C   UNL     1     -60.280 -67.975 -82.991  0.00  0.00    +0.000 C 
ATOM     26  C   UNL     1     -63.504 -71.290 -82.500  0.00  0.00    +0.000 C 
ATOM     27  C   UNL     1     -59.772 -70.535 -78.841  0.00  0.00    +0.000 C 
ATOM     28  C   UNL     1     -62.052 -69.563 -82.337  0.00  0.00    +0.000 C 
ATOM     29  C   UNL     1     -62.072 -71.696 -79.372  0.00  0.00    +0.000 C 
ATOM     30  C   UNL     1     -62.513 -70.936 -76.082  0.00  0.00    +0.000 C 
ATOM     31  C   UNL     1     -61.394 -70.482 -76.713  0.00  0.00    +0.000 C 
ATOM     32  C   UNL     1     -60.155 -66.495 -83.147  0.00  0.00    +0.000 C 
ATOM     33  C   UNL     1     -63.301 -72.636 -82.066  0.00  0.00    +0.000 C 
ATOM     34  C   UNL     1     -63.365 -70.736 -83.729  0.00  0.00    +0.000 C 
ATOM     35  C   UNL     1     -62.493 -72.474 -80.951  0.00  0.00    +0.000 C 
ATOM     36  C   UNL     1     -59.765 -71.227 -77.275  0.00  0.00    +0.000 C 
ATOM     37  C   UNL     1     -62.158 -65.365 -84.160  0.00  0.00    +0.000 C 
ATOM     38  C   UNL     1     -65.054 -60.550 -77.207  0.00  0.00    +0.000 A 
ATOM     39  C   UNL     1     -64.122 -70.095 -76.828  0.00  0.00    +0.000 C 
ATOM     40  C   UNL     1     -65.731 -62.378 -74.144  0.00  0.00    +0.000 C 
ATOM     41  C   UNL     1     -62.682 -61.147 -79.945  0.00  0.00    +0.000 C 
ATOM     42  C   UNL     1     -63.630 -70.561 -74.515  0.00  0.00    +0.000 C 
ATOM     43  C   UNL     1     -65.956 -59.576 -77.733  0.00  0.00    +0.000 A 
ATOM     44  C   UNL     1     -65.859 -61.457 -72.589  0.00  0.00    +0.000 C 
ATOM     45  C   UNL     1     -64.856 -68.800 -76.906  0.00  0.00    +0.000 C 
ATOM     46  C   UNL     1     -62.330 -59.700 -80.158  0.00  0.00    +0.000 C 
ATOM     47  C   UNL     1     -61.576 -65.646 -85.432  0.00  0.00    +0.000 C 
ATOM     48  C   UNL     1     -65.444 -60.740 -75.885  0.00  0.00    +0.000 A 
ATOM     49  C   UNL     1     -63.419 -64.915 -83.942  0.00  0.00    +0.000 C 
ATOM     50  C   UNL     1     -63.271 -60.711 -78.769  0.00  0.00    +0.000 C 
ATOM     51  C   UNL     1     -66.290 -63.618 -74.349  0.00  0.00    +0.000 C 
ATOM     52  C   UNL     1     -63.586 -63.294 -82.101  0.00  0.00    +0.000 C 
ATOM     53  C   UNL     1     -66.062 -59.038 -79.135  0.00  0.00    +0.000 C 
ATOM     54  C   UNL     1     -66.846 -59.257 -76.738  0.00  0.00    +0.000 A 
ATOM     55  C   UNL     1     -63.141 -61.992 -81.751  0.00  0.00    +0.000 C 
ATOM     56  C   UNL     1     -66.360 -65.531 -75.759  0.00  0.00    +0.000 C 
ATOM     57  C   UNL     1     -65.584 -69.870 -77.350  0.00  0.00    +0.000 C 
ATOM     58  C   UNL     1     -65.101 -60.974 -73.625  0.00  0.00    +0.000 C 
ATOM     59  C   UNL     1     -60.614 -66.122 -85.965  0.00  0.00    +0.000 C 
ATOM     60  C   UNL     1     -66.053 -66.932 -76.250  0.00  0.00    +0.000 C 
ATOM     61  C   UNL     1     -63.728 -60.017 -81.559  0.00  0.00    +0.000 C 
ATOM     62  C   UNL     1     -64.861 -64.430 -83.702  0.00  0.00    +0.000 C 
ATOM     63  C   UNL     1     -67.448 -66.339 -75.751  0.00  0.00    +0.000 C 
ATOM     64  H   UNL     1     -61.898 -65.966 -82.274  0.00  0.00    +0.000 HD
ATOM     65  H   UNL     1     -64.033 -62.235 -77.718  0.00  0.00    +0.000 HD
ATOM     66  H   UNL     1     -64.057 -67.092 -76.303  0.00  0.00    +0.000 HD
ATOM     67  H   UNL     1     -65.007 -64.060 -75.801  0.00  0.00    +0.000 HD
ATOM     68  C   UNL     1     -59.856 -68.578 -84.068  0.00  0.00    +0.000 C 
ATOM     69  C   UNL     1     -59.396 -68.188 -85.356  0.00  0.00    +0.000 C 
ATOM     70  C   UNL     1     -59.419 -66.714 -85.441  0.00  0.00    +0.000 C 
ATOM     71  C   UNL     1     -58.335 -71.248 -79.312  0.00  0.00    +0.000 C 
ATOM     72  C   UNL     1     -57.326 -70.657 -79.950  0.00  0.00    +0.000 C 
ATOM     73  C   UNL     1     -58.649 -71.481 -77.970  0.00  0.00    +0.000 C 
ATOM     74  C   UNL     1     -62.691 -71.604 -74.785  0.00  0.00    +0.000 C 
ATOM     75  C   UNL     1     -63.814 -71.978 -74.060  0.00  0.00    +0.000 C 
ATOM     76  C   UNL     1     -63.706 -72.433 -72.589  0.00  0.00    +0.000 C 
ATOM     77  C   UNL     1     -64.870 -71.103 -74.232  0.00  0.00    +0.000 C 
ATOM     78  C   UNL     1     -61.558 -58.693 -81.134  0.00  0.00    +0.000 C 
ATOM     79  C   UNL     1     -60.931 -57.530 -80.978  0.00  0.00    +0.000 C 
ATOM     80  C   UNL     1     -62.728 -59.109 -81.771  0.00  0.00    +0.000 C 
ATOM     81  C   UNL     1     -66.652 -62.174 -71.790  0.00  0.00    +0.000 C 
ATOM     82  C   UNL     1     -66.990 -61.738 -70.403  0.00  0.00    +0.000 C 
ATOM     83  C   UNL     1     -67.133 -63.392 -72.329  0.00  0.00    +0.000 C 
ENDROOT
BRANCH  69  84
ATOM     84  C   UNL     1     -59.326 -69.016 -86.502  0.00  0.00    +0.000 C 
ATOM     85  C   UNL     1     -59.261 -69.714 -87.477  0.00  0.00    +0.000 C 
BRANCH  85  86
ATOM     86  C   UNL     1     -59.175 -70.602 -88.723  0.00  0.00    +0.000 C 
ATOM     87  C   UNL     1     -59.095 -71.372 -89.807  0.00  0.00    +0.000 C 
ENDBRANCH  85  86
ENDBRANCH  69  84
BRANCH  13  88
ATOM     88  C   UNL     1     -61.105 -68.019 -80.720  0.00  0.00    +0.000 C 
BRANCH  88  89
ATOM     89  O   UNL     1     -61.150 -67.480 -79.509  0.00  0.00    +0.000 OA
ATOM     90  H   UNL     1     -61.480 -68.132 -78.866  0.00  0.00    +0.000 HD
ENDBRANCH  88  89
ENDBRANCH  13  88
TORSDOF 4
ENDMDL
MODEL 2
REMARK VINA RESULT:      -8.3     56.802     62.765
REMARK  Name = Cyclosporin_A.pdbqt.pdb
REMARK  4 active torsions:
REMARK  status: ('A' for Active; 'I' for Inactive)
REMARK    1  A    between atoms: N_13  and  C_36
REMARK    2  A    between atoms: C_36  and  O_70
REMARK    3  A    between atoms: C_72  and  C_73
REMARK    4  A    between atoms: C_75  and  C_76
REMARK                            x       y       z     vdW  Elec       q    Type
REMARK                         _______ _______ _______ _____ _____    ______ ____
ROOT
ATOM      1  O   UNL     1     -61.206 -65.546 -18.898  0.00  0.00    +0.000 OA
ATOM      2  O   UNL     1     -60.376 -63.840 -14.132  0.00  0.00    +0.000 OA
ATOM      3  O   UNL     1     -64.188 -61.024 -13.460  0.00  0.00    +0.000 OA
ATOM      4  O   UNL     1     -63.415 -62.585 -22.117  0.00  0.00    +0.000 OA
ATOM      5  O   UNL     1     -63.573 -65.950 -12.422  0.00  0.00    +0.000 OA
ATOM      6  O   UNL     1     -73.939 -67.473 -16.585  0.00  0.00    +0.000 OA
ATOM      7  O   UNL     1     -64.887 -67.962 -22.019  0.00  0.00    +0.000 OA
ATOM      8  O   UNL     1     -72.237 -64.940 -20.452  0.00  0.00    +0.000 OA
ATOM      9  O   UNL     1     -71.600 -67.129 -12.355  0.00  0.00    +0.000 OA
ATOM     10  O   UNL     1     -69.051 -66.523 -22.504  0.00  0.00    +0.000 OA
ATOM     11  O   UNL     1     -67.391 -67.987 -12.741  0.00  0.00    +0.000 OA
ATOM     12  N   UNL     1     -61.253 -63.900 -15.858  0.00  0.00    +0.000 NA
ATOM     13  N   UNL     1     -62.662 -63.653 -18.611  0.00  0.00    +0.000 NA
ATOM     14  N   UNL     1     -62.604 -62.219 -13.448  0.00  0.00    +0.000 NA
ATOM     15  N   UNL     1     -65.085 -63.851 -12.313  0.00  0.00    +0.000 NA
ATOM     16  N   UNL     1     -64.600 -64.342 -20.910  0.00  0.00    +0.000 NA
ATOM     17  N   UNL     1     -72.877 -65.600 -15.631  0.00  0.00    +0.000 N 
ATOM     18  N   UNL     1     -71.429 -65.657 -18.376  0.00  0.00    +0.000 N 
ATOM     19  N   UNL     1     -69.778 -66.246 -20.692  0.00  0.00    +0.000 NA
ATOM     20  N   UNL     1     -66.106 -66.944 -20.390  0.00  0.00    +0.000 NA
ATOM     21  N   UNL     1     -66.866 -65.774 -13.736  0.00  0.00    +0.000 NA
ATOM     22  N   UNL     1     -70.255 -66.575 -14.282  0.00  0.00    +0.000 NA
ATOM     23  C   UNL     1     -61.325 -64.892 -16.792  0.00  0.00    +0.000 C 
ATOM     24  C   UNL     1     -62.510 -62.671 -14.702  0.00  0.00    +0.000 C 
ATOM     25  C   UNL     1     -62.604 -63.200 -19.915  0.00  0.00    +0.000 C 
ATOM     26  C   UNL     1     -60.431 -65.946 -16.855  0.00  0.00    +0.000 C 
ATOM     27  C   UNL     1     -62.578 -61.353 -15.375  0.00  0.00    +0.000 C 
ATOM     28  C   UNL     1     -61.810 -64.610 -18.052  0.00  0.00    +0.000 C 
ATOM     29  C   UNL     1     -61.577 -63.638 -14.539  0.00  0.00    +0.000 C 
ATOM     30  C   UNL     1     -64.000 -63.137 -12.199  0.00  0.00    +0.000 C 
ATOM     31  C   UNL     1     -63.925 -62.279 -13.256  0.00  0.00    +0.000 C 
ATOM     32  C   UNL     1     -63.756 -63.212 -20.867  0.00  0.00    +0.000 C 
ATOM     33  C   UNL     1     -59.502 -65.548 -15.844  0.00  0.00    +0.000 C 
ATOM     34  C   UNL     1     -60.234 -66.205 -18.170  0.00  0.00    +0.000 C 
ATOM     35  C   UNL     1     -60.136 -64.459 -15.265  0.00  0.00    +0.000 C 
ATOM     36  C   UNL     1     -62.818 -60.847 -13.757  0.00  0.00    +0.000 C 
ATOM     37  C   UNL     1     -64.398 -65.484 -21.726  0.00  0.00    +0.000 C 
ATOM     38  C   UNL     1     -72.442 -66.481 -17.956  0.00  0.00    +0.000 A 
ATOM     39  C   UNL     1     -64.495 -64.938 -12.799  0.00  0.00    +0.000 C 
ATOM     40  C   UNL     1     -72.591 -66.125 -14.346  0.00  0.00    +0.000 C 
ATOM     41  C   UNL     1     -70.231 -64.988 -20.477  0.00  0.00    +0.000 C 
ATOM     42  C   UNL     1     -65.266 -63.764 -10.841  0.00  0.00    +0.000 C 
ATOM     43  C   UNL     1     -73.086 -67.552 -18.647  0.00  0.00    +0.000 A 
ATOM     44  C   UNL     1     -74.200 -65.843 -13.563  0.00  0.00    +0.000 C 
ATOM     45  C   UNL     1     -65.627 -65.736 -13.351  0.00  0.00    +0.000 C 
ATOM     46  C   UNL     1     -71.299 -64.795 -21.520  0.00  0.00    +0.000 C 
ATOM     47  C   UNL     1     -63.425 -65.286 -22.752  0.00  0.00    +0.000 C 
ATOM     48  C   UNL     1     -73.021 -66.455 -16.691  0.00  0.00    +0.000 A 
ATOM     49  C   UNL     1     -65.033 -66.649 -21.443  0.00  0.00    +0.000 C 
ATOM     50  C   UNL     1     -71.284 -65.229 -19.609  0.00  0.00    +0.000 C 
ATOM     51  C   UNL     1     -71.501 -66.648 -13.690  0.00  0.00    +0.000 C 
ATOM     52  C   UNL     1     -67.387 -66.360 -20.797  0.00  0.00    +0.000 C 
ATOM     53  C   UNL     1     -72.813 -68.095 -20.024  0.00  0.00    +0.000 C 
ATOM     54  C   UNL     1     -73.978 -68.127 -17.778  0.00  0.00    +0.000 A 
ATOM     55  C   UNL     1     -68.618 -65.907 -21.338  0.00  0.00    +0.000 C 
ATOM     56  C   UNL     1     -69.154 -67.020 -13.771  0.00  0.00    +0.000 C 
ATOM     57  C   UNL     1     -64.573 -66.500 -12.931  0.00  0.00    +0.000 C 
ATOM     58  C   UNL     1     -73.977 -65.451 -14.858  0.00  0.00    +0.000 C 
ATOM     59  C   UNL     1     -62.636 -64.497 -23.188  0.00  0.00    +0.000 C 
ATOM     60  C   UNL     1     -67.680 -66.792 -13.497  0.00  0.00    +0.000 C 
ATOM     61  C   UNL     1     -70.450 -66.523 -22.080  0.00  0.00    +0.000 C 
ATOM     62  C   UNL     1     -65.729 -67.982 -21.112  0.00  0.00    +0.000 C 
ATOM     63  C   UNL     1     -68.599 -68.010 -13.030  0.00  0.00    +0.000 C 
ATOM     64  H   UNL     1     -64.856 -64.648 -19.971  0.00  0.00    +0.000 HD
ATOM     65  H   UNL     1     -70.638 -65.562 -17.744  0.00  0.00    +0.000 HD
ATOM     66  H   UNL     1     -67.295 -64.893 -14.007  0.00  0.00    +0.000 HD
ATOM     67  H   UNL     1     -70.219 -65.825 -14.967  0.00  0.00    +0.000 HD
ATOM     68  C   UNL     1     -61.481 -63.078 -20.569  0.00  0.00    +0.000 C 
ATOM     69  C   UNL     1     -61.079 -63.039 -21.933  0.00  0.00    +0.000 C 
ATOM     70  C   UNL     1     -62.279 -63.169 -22.784  0.00  0.00    +0.000 C 
ATOM     71  C   UNL     1     -61.567 -60.079 -15.767  0.00  0.00    +0.000 C 
ATOM     72  C   UNL     1     -61.616 -59.337 -16.872  0.00  0.00    +0.000 C 
ATOM     73  C   UNL     1     -62.113 -59.972 -14.485  0.00  0.00    +0.000 C 
ATOM     74  C   UNL     1     -64.140 -62.888 -10.758  0.00  0.00    +0.000 C 
ATOM     75  C   UNL     1     -64.332 -63.726  -9.668  0.00  0.00    +0.000 C 
ATOM     76  C   UNL     1     -64.712 -63.165  -8.281  0.00  0.00    +0.000 C 
ATOM     77  C   UNL     1     -65.097 -64.833  -9.981  0.00  0.00    +0.000 C 
ATOM     78  C   UNL     1     -71.546 -64.402 -23.052  0.00  0.00    +0.000 C 
ATOM     79  C   UNL     1     -72.538 -63.824 -23.723  0.00  0.00    +0.000 C 
ATOM     80  C   UNL     1     -70.991 -65.682 -23.013  0.00  0.00    +0.000 C 
ATOM     81  C   UNL     1     -74.106 -66.325 -12.321  0.00  0.00    +0.000 C 
ATOM     82  C   UNL     1     -75.243 -66.265 -11.355  0.00  0.00    +0.000 C 
ATOM     83  C   UNL     1     -72.849 -66.873 -11.966  0.00  0.00    +0.000 C 
ENDROOT
BRANCH  69  84
ATOM     84  C   UNL     1     -59.771 -63.261 -22.423  0.00  0.00    +0.000 C 
ATOM     85  C   UNL     1     -58.660 -63.458 -22.836  0.00  0.00    +0.000 C 
BRANCH  85  86
ATOM     86  C   UNL     1     -57.243 -63.712 -23.360  0.00  0.00    +0.000 C 
ATOM     87  C   UNL     1     -56.013 -63.939 -23.817  0.00  0.00    +0.000 C 
ENDBRANCH  85  86
ENDBRANCH  69  84
BRANCH  13  88
ATOM     88  C   UNL     1     -63.856 -63.319 -17.852  0.00  0.00    +0.000 C 
BRANCH  88  89
ATOM     89  O   UNL     1     -64.959 -63.022 -17.178  0.00  0.00    +0.000 OA
ATOM     90  H   UNL     1     -65.459 -63.835 -16.982  0.00  0.00    +0.000 HD
ENDBRANCH  88  89
ENDBRANCH  13  88
TORSDOF 4
ENDMDL
MODEL 3
REMARK VINA RESULT:      -8.2     28.726     32.843
REMARK  Name = Cyclosporin_A.pdbqt.pdb
REMARK  4 active torsions:
REMARK  status: ('A' for Active; 'I' for Inactive)
REMARK    1  A    between atoms: N_13  and  C_36
REMARK    2  A    between atoms: C_36  and  O_70
REMARK    3  A    between atoms: C_72  and  C_73
REMARK    4  A    between atoms: C_75  and  C_76
REMARK                            x       y       z     vdW  Elec       q    Type
REMARK                         _______ _______ _______ _____ _____    ______ ____
ROOT
ATOM      1  O   UNL     1     -57.515 -40.142 -57.236  0.00  0.00    +0.000 OA
ATOM      2  O   UNL     1     -56.992 -38.965 -62.202  0.00  0.00    +0.000 OA
ATOM      3  O   UNL     1     -58.912 -42.820 -64.293  0.00  0.00    +0.000 OA
ATOM      4  O   UNL     1     -57.181 -44.836 -55.872  0.00  0.00    +0.000 OA
ATOM      5  O   UNL     1     -61.098 -38.461 -62.898  0.00  0.00    +0.000 OA
ATOM      6  O   UNL     1     -69.641 -44.718 -59.030  0.00  0.00    +0.000 OA
ATOM      7  O   UNL     1     -61.138 -41.674 -53.541  0.00  0.00    +0.000 OA
ATOM      8  O   UNL     1     -66.108 -47.237 -56.697  0.00  0.00    +0.000 OA
ATOM      9  O   UNL     1     -68.424 -41.948 -62.815  0.00  0.00    +0.000 OA
ATOM     10  O   UNL     1     -63.794 -45.194 -53.988  0.00  0.00    +0.000 OA
ATOM     11  O   UNL     1     -65.249 -39.187 -61.864  0.00  0.00    +0.000 OA
ATOM     12  N   UNL     1     -57.383 -40.112 -60.691  0.00  0.00    +0.000 NA
ATOM     13  N   UNL     1     -57.844 -42.198 -58.441  0.00  0.00    +0.000 NA
ATOM     14  N   UNL     1     -58.188 -41.080 -63.670  0.00  0.00    +0.000 NA
ATOM     15  N   UNL     1     -61.331 -40.771 -64.043  0.00  0.00    +0.000 NA
ATOM     16  N   UNL     1     -59.316 -43.701 -56.185  0.00  0.00    +0.000 NA
ATOM     17  N   UNL     1     -68.016 -45.113 -60.688  0.00  0.00    +0.000 N 
ATOM     18  N   UNL     1     -66.241 -45.416 -58.161  0.00  0.00    +0.000 N 
ATOM     19  N   UNL     1     -64.655 -45.043 -55.756  0.00  0.00    +0.000 NA
ATOM     20  N   UNL     1     -61.998 -42.408 -55.515  0.00  0.00    +0.000 NA
ATOM     21  N   UNL     1     -63.482 -40.927 -61.983  0.00  0.00    +0.000 NA
ATOM     22  N   UNL     1     -66.603 -42.416 -61.298  0.00  0.00    +0.000 NA
ATOM     23  C   UNL     1     -57.742 -39.813 -59.409  0.00  0.00    +0.000 C 
ATOM     24  C   UNL     1     -58.066 -41.216 -62.347  0.00  0.00    +0.000 C 
ATOM     25  C   UNL     1     -57.287 -43.035 -57.494  0.00  0.00    +0.000 C 
ATOM     26  C   UNL     1     -57.509 -38.584 -58.820  0.00  0.00    +0.000 C 
ATOM     27  C   UNL     1     -57.316 -42.492 -62.366  0.00  0.00    +0.000 C 
ATOM     28  C   UNL     1     -57.733 -40.804 -58.449  0.00  0.00    +0.000 C 
ATOM     29  C   UNL     1     -57.807 -39.935 -61.996  0.00  0.00    +0.000 C 
ATOM     30  C   UNL     1     -60.088 -40.654 -64.420  0.00  0.00    +0.000 C 
ATOM     31  C   UNL     1     -59.366 -41.676 -63.878  0.00  0.00    +0.000 C 
ATOM     32  C   UNL     1     -58.051 -44.048 -56.704  0.00  0.00    +0.000 C 
ATOM     33  C   UNL     1     -56.750 -37.950 -59.852  0.00  0.00    +0.000 C 
ATOM     34  C   UNL     1     -57.191 -38.831 -57.526  0.00  0.00    +0.000 C 
ATOM     35  C   UNL     1     -56.857 -38.851 -60.900  0.00  0.00    +0.000 C 
ATOM     36  C   UNL     1     -57.612 -42.324 -64.043  0.00  0.00    +0.000 C 
ATOM     37  C   UNL     1     -59.546 -43.094 -54.924  0.00  0.00    +0.000 C 
ATOM     38  C   UNL     1     -67.594 -45.193 -58.202  0.00  0.00    +0.000 A 
ATOM     39  C   UNL     1     -61.279 -39.857 -63.079  0.00  0.00    +0.000 C 
ATOM     40  C   UNL     1     -68.318 -44.042 -61.568  0.00  0.00    +0.000 C 
ATOM     41  C   UNL     1     -64.447 -46.120 -56.552  0.00  0.00    +0.000 C 
ATOM     42  C   UNL     1     -61.757 -40.326 -65.395  0.00  0.00    +0.000 C 
ATOM     43  C   UNL     1     -68.522 -45.048 -57.126  0.00  0.00    +0.000 A 
ATOM     44  C   UNL     1     -69.692 -44.802 -62.473  0.00  0.00    +0.000 C 
ATOM     45  C   UNL     1     -62.509 -40.121 -62.278  0.00  0.00    +0.000 C 
ATOM     46  C   UNL     1     -65.020 -47.273 -55.772  0.00  0.00    +0.000 C 
ATOM     47  C   UNL     1     -58.411 -43.133 -54.059  0.00  0.00    +0.000 C 
ATOM     48  C   UNL     1     -68.338 -45.005 -59.362  0.00  0.00    +0.000 A 
ATOM     49  C   UNL     1     -60.724 -42.474 -54.666  0.00  0.00    +0.000 C 
ATOM     50  C   UNL     1     -65.637 -46.159 -57.261  0.00  0.00    +0.000 C 
ATOM     51  C   UNL     1     -67.811 -42.796 -61.851  0.00  0.00    +0.000 C 
ATOM     52  C   UNL     1     -62.689 -43.700 -55.490  0.00  0.00    +0.000 C 
ATOM     53  C   UNL     1     -68.269 -45.072 -55.643  0.00  0.00    +0.000 C 
ATOM     54  C   UNL     1     -69.745 -44.756 -57.674  0.00  0.00    +0.000 A 
ATOM     55  C   UNL     1     -63.374 -44.925 -55.283  0.00  0.00    +0.000 C 
ATOM     56  C   UNL     1     -66.016 -41.279 -61.489  0.00  0.00    +0.000 C 
ATOM     57  C   UNL     1     -62.102 -38.815 -62.243  0.00  0.00    +0.000 C 
ATOM     58  C   UNL     1     -69.029 -45.501 -61.497  0.00  0.00    +0.000 C 
ATOM     59  C   UNL     1     -57.259 -43.459 -53.999  0.00  0.00    +0.000 C 
ATOM     60  C   UNL     1     -64.727 -40.529 -61.763  0.00  0.00    +0.000 C 
ATOM     61  C   UNL     1     -65.057 -45.781 -54.433  0.00  0.00    +0.000 C 
ATOM     62  C   UNL     1     -62.048 -41.744 -54.376  0.00  0.00    +0.000 C 
ATOM     63  C   UNL     1     -66.209 -39.948 -61.657  0.00  0.00    +0.000 C 
ATOM     64  H   UNL     1     -59.888 -43.229 -56.887  0.00  0.00    +0.000 HD
ATOM     65  H   UNL     1     -65.667 -44.793 -58.725  0.00  0.00    +0.000 HD
ATOM     66  H   UNL     1     -63.339 -41.915 -62.172  0.00  0.00    +0.000 HD
ATOM     67  H   UNL     1     -66.048 -43.226 -61.038  0.00  0.00    +0.000 HD
ATOM     68  C   UNL     1     -56.144 -42.783 -56.916  0.00  0.00    +0.000 C 
ATOM     69  C   UNL     1     -55.494 -43.156 -55.707  0.00  0.00    +0.000 C 
ATOM     70  C   UNL     1     -56.380 -44.066 -54.954  0.00  0.00    +0.000 C 
ATOM     71  C   UNL     1     -55.745 -43.034 -62.558  0.00  0.00    +0.000 C 
ATOM     72  C   UNL     1     -55.174 -44.058 -61.927  0.00  0.00    +0.000 C 
ATOM     73  C   UNL     1     -56.424 -42.879 -63.770  0.00  0.00    +0.000 C 
ATOM     74  C   UNL     1     -60.392 -40.317 -65.818  0.00  0.00    +0.000 C 
ATOM     75  C   UNL     1     -61.209 -39.360 -66.403  0.00  0.00    +0.000 C 
ATOM     76  C   UNL     1     -61.544 -39.403 -67.910  0.00  0.00    +0.000 C 
ATOM     77  C   UNL     1     -62.338 -39.098 -65.651  0.00  0.00    +0.000 C 
ATOM     78  C   UNL     1     -64.698 -48.327 -54.612  0.00  0.00    +0.000 C 
ATOM     79  C   UNL     1     -65.093 -49.567 -54.335  0.00  0.00    +0.000 C 
ATOM     80  C   UNL     1     -64.886 -47.074 -54.025  0.00  0.00    +0.000 C 
ATOM     81  C   UNL     1     -70.124 -43.886 -63.343  0.00  0.00    +0.000 C 
ATOM     82  C   UNL     1     -71.254 -44.150 -64.282  0.00  0.00    +0.000 C 
ATOM     83  C   UNL     1     -69.424 -42.655 -63.340  0.00  0.00    +0.000 C 
ENDROOT
BRANCH  69  84
ATOM     84  C   UNL     1     -54.405 -42.483 -55.105  0.00  0.00    +0.000 C 
ATOM     85  C   UNL     1     -53.484 -41.904 -54.595  0.00  0.00    +0.000 C 
BRANCH  85  86
ATOM     86  C   UNL     1     -52.310 -41.162 -53.947  0.00  0.00    +0.000 C 
ATOM     87  C   UNL     1     -51.293 -40.513 -53.384  0.00  0.00    +0.000 C 
ENDBRANCH  85  86
ENDBRANCH  69  84
BRANCH  13  88
ATOM     88  C   UNL     1     -58.839 -42.778 -59.328  0.00  0.00    +0.000 C 
BRANCH  88  89
ATOM     89  O   UNL     1     -59.759 -43.317 -60.117  0.00  0.00    +0.000 OA
ATOM     90  H   UNL     1     -60.189 -42.624 -60.649  0.00  0.00    +0.000 HD
ENDBRANCH  88  89
ENDBRANCH  13  88
TORSDOF 4
ENDMDL
MODEL 4
REMARK VINA RESULT:      -8.2     28.867     34.211
REMARK  Name = Cyclosporin_A.pdbqt.pdb
REMARK  4 active torsions:
REMARK  status: ('A' for Active; 'I' for Inactive)
REMARK    1  A    between atoms: N_13  and  C_36
REMARK    2  A    between atoms: C_36  and  O_70
REMARK    3  A    between atoms: C_72  and  C_73
REMARK    4  A    between atoms: C_75  and  C_76
REMARK                            x       y       z     vdW  Elec       q    Type
REMARK                         _______ _______ _______ _____ _____    ______ ____
ROOT
ATOM      1  O   UNL     1     -57.815 -40.660 -53.830  0.00  0.00    +0.000 OA
ATOM      2  O   UNL     1     -56.854 -39.056 -58.606  0.00  0.00    +0.000 OA
ATOM      3  O   UNL     1     -58.093 -42.909 -61.163  0.00  0.00    +0.000 OA
ATOM      4  O   UNL     1     -57.135 -45.389 -52.742  0.00  0.00    +0.000 OA
ATOM      5  O   UNL     1     -60.882 -38.910 -59.766  0.00  0.00    +0.000 OA
ATOM      6  O   UNL     1     -69.089 -46.264 -57.389  0.00  0.00    +0.000 OA
ATOM      7  O   UNL     1     -61.652 -42.825 -50.713  0.00  0.00    +0.000 OA
ATOM      8  O   UNL     1     -65.598 -48.593 -54.809  0.00  0.00    +0.000 OA
ATOM      9  O   UNL     1     -67.750 -43.102 -60.807  0.00  0.00    +0.000 OA
ATOM     10  O   UNL     1     -63.845 -46.546 -51.710  0.00  0.00    +0.000 OA
ATOM     11  O   UNL     1     -65.022 -40.122 -59.297  0.00  0.00    +0.000 OA
ATOM     12  N   UNL     1     -57.290 -40.350 -57.233  0.00  0.00    +0.000 NA
ATOM     13  N   UNL     1     -57.779 -42.640 -55.196  0.00  0.00    +0.000 NA
ATOM     14  N   UNL     1     -57.638 -41.160 -60.345  0.00  0.00    +0.000 NA
ATOM     15  N   UNL     1     -60.732 -41.137 -61.079  0.00  0.00    +0.000 NA
ATOM     16  N   UNL     1     -59.331 -44.451 -53.240  0.00  0.00    +0.000 NA
ATOM     17  N   UNL     1     -67.252 -46.366 -58.858  0.00  0.00    +0.000 N 
ATOM     18  N   UNL     1     -65.757 -46.686 -56.157  0.00  0.00    +0.000 N 
ATOM     19  N   UNL     1     -64.508 -46.345 -53.556  0.00  0.00    +0.000 NA
ATOM     20  N   UNL     1     -62.195 -43.486 -52.821  0.00  0.00    +0.000 NA
ATOM     21  N   UNL     1     -63.076 -41.664 -59.312  0.00  0.00    +0.000 NA
ATOM     22  N   UNL     1     -66.076 -43.503 -59.113  0.00  0.00    +0.000 NA
ATOM     23  C   UNL     1     -57.824 -40.189 -55.988  0.00  0.00    +0.000 C 
ATOM     24  C   UNL     1     -57.655 -41.386 -59.028  0.00  0.00    +0.000 C 
ATOM     25  C   UNL     1     -57.248 -43.488 -54.244  0.00  0.00    +0.000 C 
ATOM     26  C   UNL     1     -57.794 -38.991 -55.296  0.00  0.00    +0.000 C 
ATOM     27  C   UNL     1     -56.774 -42.576 -59.038  0.00  0.00    +0.000 C 
ATOM     28  C   UNL     1     -57.819 -41.245 -55.100  0.00  0.00    +0.000 C 
ATOM     29  C   UNL     1     -57.578 -40.116 -58.565  0.00  0.00    +0.000 C 
ATOM     30  C   UNL     1     -59.474 -40.868 -61.292  0.00  0.00    +0.000 C 
ATOM     31  C   UNL     1     -58.713 -41.852 -60.734  0.00  0.00    +0.000 C 
ATOM     32  C   UNL     1     -57.984 -44.629 -53.622  0.00  0.00    +0.000 C 
ATOM     33  C   UNL     1     -56.994 -38.208 -56.184  0.00  0.00    +0.000 C 
ATOM     34  C   UNL     1     -57.602 -39.305 -53.992  0.00  0.00    +0.000 C 
ATOM     35  C   UNL     1     -56.882 -39.031 -57.294  0.00  0.00    +0.000 C 
ATOM     36  C   UNL     1     -56.892 -42.308 -60.724  0.00  0.00    +0.000 C 
ATOM     37  C   UNL     1     -59.768 -43.969 -51.980  0.00  0.00    +0.000 C 
ATOM     38  C   UNL     1     -67.112 -46.597 -56.349  0.00  0.00    +0.000 A 
ATOM     39  C   UNL     1     -60.890 -40.299 -60.059  0.00  0.00    +0.000 C 
ATOM     40  C   UNL     1     -67.564 -45.266 -59.696  0.00  0.00    +0.000 C 
ATOM     41  C   UNL     1     -64.095 -47.331 -54.389  0.00  0.00    +0.000 C 
ATOM     42  C   UNL     1     -61.045 -40.632 -62.441  0.00  0.00    +0.000 C 
ATOM     43  C   UNL     1     -68.168 -46.628 -55.388  0.00  0.00    +0.000 A 
ATOM     44  C   UNL     1     -68.735 -46.086 -60.810  0.00  0.00    +0.000 C 
ATOM     45  C   UNL     1     -62.168 -40.745 -59.433  0.00  0.00    +0.000 C 
ATOM     46  C   UNL     1     -64.626 -48.592 -53.762  0.00  0.00    +0.000 C 
ATOM     47  C   UNL     1     -58.742 -43.962 -50.987  0.00  0.00    +0.000 C 
ATOM     48  C   UNL     1     -67.734 -46.394 -57.576  0.00  0.00    +0.000 A 
ATOM     49  C   UNL     1     -61.028 -43.491 -51.829  0.00  0.00    +0.000 C 
ATOM     50  C   UNL     1     -65.184 -47.433 -55.240  0.00  0.00    +0.000 C 
ATOM     51  C   UNL     1     -67.165 -43.957 -59.833  0.00  0.00    +0.000 C 
ATOM     52  C   UNL     1     -62.741 -44.839 -52.965  0.00  0.00    +0.000 C 
ATOM     53  C   UNL     1     -68.086 -46.741 -53.889  0.00  0.00    +0.000 C 
ATOM     54  C   UNL     1     -69.344 -46.417 -56.061  0.00  0.00    +0.000 A 
ATOM     55  C   UNL     1     -63.310 -46.138 -52.923  0.00  0.00    +0.000 C 
ATOM     56  C   UNL     1     -65.597 -42.302 -59.156  0.00  0.00    +0.000 C 
ATOM     57  C   UNL     1     -61.911 -39.411 -59.264  0.00  0.00    +0.000 C 
ATOM     58  C   UNL     1     -68.117 -46.789 -59.808  0.00  0.00    +0.000 C 
ATOM     59  C   UNL     1     -57.577 -44.176 -50.808  0.00  0.00    +0.000 C 
ATOM     60  C   UNL     1     -64.373 -41.410 -59.221  0.00  0.00    +0.000 C 
ATOM     61  C   UNL     1     -64.977 -47.219 -52.344  0.00  0.00    +0.000 C 
ATOM     62  C   UNL     1     -62.448 -42.920 -51.656  0.00  0.00    +0.000 C 
ATOM     63  C   UNL     1     -65.912 -40.988 -59.260  0.00  0.00    +0.000 C 
ATOM     64  H   UNL     1     -59.865 -43.985 -53.975  0.00  0.00    +0.000 HD
ATOM     65  H   UNL     1     -65.192 -45.968 -56.604  0.00  0.00    +0.000 HD
ATOM     66  H   UNL     1     -62.807 -42.616 -59.546  0.00  0.00    +0.000 HD
ATOM     67  H   UNL     1     -65.472 -44.272 -58.840  0.00  0.00    +0.000 HD
ATOM     68  C   UNL     1     -56.213 -43.169 -53.516  0.00  0.00    +0.000 C 
ATOM     69  C   UNL     1     -55.670 -43.568 -52.263  0.00  0.00    +0.000 C 
ATOM     70  C   UNL     1     -56.533 -44.617 -51.685  0.00  0.00    +0.000 C 
ATOM     71  C   UNL     1     -55.142 -42.942 -59.071  0.00  0.00    +0.000 C 
ATOM     72  C   UNL     1     -54.541 -43.950 -58.442  0.00  0.00    +0.000 C 
ATOM     73  C   UNL     1     -55.691 -42.762 -60.344  0.00  0.00    +0.000 C 
ATOM     74  C   UNL     1     -59.649 -40.455 -62.692  0.00  0.00    +0.000 C 
ATOM     75  C   UNL     1     -60.492 -39.542 -63.310  0.00  0.00    +0.000 C 
ATOM     76  C   UNL     1     -60.645 -39.501 -64.845  0.00  0.00    +0.000 C 
ATOM     77  C   UNL     1     -61.722 -39.452 -62.686  0.00  0.00    +0.000 C 
ATOM     78  C   UNL     1     -64.328 -49.696 -52.642  0.00  0.00    +0.000 C 
ATOM     79  C   UNL     1     -64.616 -50.986 -52.497  0.00  0.00    +0.000 C 
ATOM     80  C   UNL     1     -64.716 -48.517 -52.003  0.00  0.00    +0.000 C 
ATOM     81  C   UNL     1     -69.160 -45.153 -61.665  0.00  0.00    +0.000 C 
ATOM     82  C   UNL     1     -70.139 -45.454 -62.751  0.00  0.00    +0.000 C 
ATOM     83  C   UNL     1     -68.602 -43.862 -61.496  0.00  0.00    +0.000 C 
ENDROOT
BRANCH  69  84
ATOM     84  C   UNL     1     -54.736 -42.839 -51.490  0.00  0.00    +0.000 C 
ATOM     85  C   UNL     1     -53.939 -42.217 -50.840  0.00  0.00    +0.000 C 
BRANCH  85  86
ATOM     86  C   UNL     1     -52.920 -41.425 -50.015  0.00  0.00    +0.000 C 
ATOM     87  C   UNL     1     -52.036 -40.732 -49.299  0.00  0.00    +0.000 C 
ENDBRANCH  85  86
ENDBRANCH  69  84
BRANCH  13  88
ATOM     88  C   UNL     1     -58.598 -43.245 -56.234  0.00  0.00    +0.000 C 
BRANCH  88  89
ATOM     89  O   UNL     1     -59.354 -43.813 -57.164  0.00  0.00    +0.000 OA
ATOM     90  H   UNL     1     -58.793 -44.278 -57.810  0.00  0.00    +0.000 HD
ENDBRANCH  88  89
ENDBRANCH  13  88
TORSDOF 4
ENDMDL
MODEL 5
REMARK VINA RESULT:      -8.1     16.436     22.209
REMARK  Name = Cyclosporin_A.pdbqt.pdb
REMARK  4 active torsions:
REMARK  status: ('A' for Active; 'I' for Inactive)
REMARK    1  A    between atoms: N_13  and  C_36
REMARK    2  A    between atoms: C_36  and  O_70
REMARK    3  A    between atoms: C_72  and  C_73
REMARK    4  A    between atoms: C_75  and  C_76
REMARK                            x       y       z     vdW  Elec       q    Type
REMARK                         _______ _______ _______ _____ _____    ______ ____
ROOT
ATOM      1  O   UNL     1     -45.092 -61.988 -79.935  0.00  0.00    +0.000 OA
ATOM      2  O   UNL     1     -43.501 -66.864 -80.027  0.00  0.00    +0.000 OA
ATOM      3  O   UNL     1     -45.210 -68.335 -84.249  0.00  0.00    +0.000 OA
ATOM      4  O   UNL     1     -49.359 -60.854 -82.060  0.00  0.00    +0.000 OA
ATOM      5  O   UNL     1     -40.713 -66.286 -83.107  0.00  0.00    +0.000 OA
ATOM      6  O   UNL     1     -41.859 -60.117 -92.474  0.00  0.00    +0.000 OA
ATOM      7  O   UNL     1     -45.043 -57.396 -82.770  0.00  0.00    +0.000 OA
ATOM      8  O   UNL     1     -46.280 -58.990 -90.615  0.00  0.00    +0.000 OA
ATOM      9  O   UNL     1     -39.565 -64.052 -90.823  0.00  0.00    +0.000 OA
ATOM     10  O   UNL     1     -46.379 -57.073 -86.983  0.00  0.00    +0.000 OA
ATOM     11  O   UNL     1     -39.225 -64.061 -86.523  0.00  0.00    +0.000 OA
ATOM     12  N   UNL     1     -44.502 -65.322 -80.636  0.00  0.00    +0.000 NA
ATOM     13  N   UNL     1     -46.369 -63.067 -81.665  0.00  0.00    +0.000 NA
ATOM     14  N   UNL     1     -44.301 -67.934 -82.531  0.00  0.00    +0.000 NA
ATOM     15  N   UNL     1     -42.260 -67.340 -84.897  0.00  0.00    +0.000 NA
ATOM     16  N   UNL     1     -47.206 -60.494 -83.146  0.00  0.00    +0.000 NA
ATOM     17  N   UNL     1     -42.764 -62.192 -91.827  0.00  0.00    +0.000 N 
ATOM     18  N   UNL     1     -44.450 -60.320 -90.015  0.00  0.00    +0.000 N 
ATOM     19  N   UNL     1     -45.458 -58.498 -87.989  0.00  0.00    +0.000 NA
ATOM     20  N   UNL     1     -44.807 -59.030 -84.335  0.00  0.00    +0.000 NA
ATOM     21  N   UNL     1     -41.590 -64.731 -86.176  0.00  0.00    +0.000 NA
ATOM     22  N   UNL     1     -41.224 -63.160 -89.311  0.00  0.00    +0.000 NA
ATOM     23  C   UNL     1     -44.299 -63.987 -80.438  0.00  0.00    +0.000 C 
ATOM     24  C   UNL     1     -44.724 -66.711 -82.200  0.00  0.00    +0.000 C 
ATOM     25  C   UNL     1     -47.532 -62.343 -81.488  0.00  0.00    +0.000 C 
ATOM     26  C   UNL     1     -43.532 -63.478 -79.406  0.00  0.00    +0.000 C 
ATOM     27  C   UNL     1     -46.173 -66.973 -82.356  0.00  0.00    +0.000 C 
ATOM     28  C   UNL     1     -45.290 -63.088 -80.775  0.00  0.00    +0.000 C 
ATOM     29  C   UNL     1     -43.884 -66.436 -81.175  0.00  0.00    +0.000 C 
ATOM     30  C   UNL     1     -42.775 -68.072 -83.948  0.00  0.00    +0.000 C 
ATOM     31  C   UNL     1     -44.104 -67.787 -83.845  0.00  0.00    +0.000 C 
ATOM     32  C   UNL     1     -48.086 -61.375 -82.482  0.00  0.00    +0.000 C 
ATOM     33  C   UNL     1     -43.239 -64.681 -78.693  0.00  0.00    +0.000 C 
ATOM     34  C   UNL     1     -44.147 -62.344 -78.993  0.00  0.00    +0.000 C 
ATOM     35  C   UNL     1     -43.722 -65.662 -79.546  0.00  0.00    +0.000 C 
ATOM     36  C   UNL     1     -45.563 -68.481 -82.889  0.00  0.00    +0.000 C 
ATOM     37  C   UNL     1     -46.818 -59.214 -82.675  0.00  0.00    +0.000 C 
ATOM     38  C   UNL     1     -43.521 -59.949 -90.952  0.00  0.00    +0.000 A 
ATOM     39  C   UNL     1     -41.721 -66.424 -84.099  0.00  0.00    +0.000 C 
ATOM     40  C   UNL     1     -41.563 -62.925 -91.654  0.00  0.00    +0.000 C 
ATOM     41  C   UNL     1     -46.304 -59.335 -88.638  0.00  0.00    +0.000 C 
ATOM     42  C   UNL     1     -41.413 -68.495 -85.293  0.00  0.00    +0.000 C 
ATOM     43  C   UNL     1     -43.093 -58.642 -91.338  0.00  0.00    +0.000 A 
ATOM     44  C   UNL     1     -41.264 -63.385 -93.381  0.00  0.00    +0.000 C 
ATOM     45  C   UNL     1     -41.411 -65.294 -85.021  0.00  0.00    +0.000 C 
ATOM     46  C   UNL     1     -47.076 -58.436 -89.565  0.00  0.00    +0.000 C 
ATOM     47  C   UNL     1     -47.631 -58.731 -81.606  0.00  0.00    +0.000 C 
ATOM     48  C   UNL     1     -42.745 -60.828 -91.701  0.00  0.00    +0.000 A 
ATOM     49  C   UNL     1     -45.714 -58.605 -83.176  0.00  0.00    +0.000 C 
ATOM     50  C   UNL     1     -45.553 -59.654 -89.758  0.00  0.00    +0.000 C 
ATOM     51  C   UNL     1     -40.771 -63.330 -90.605  0.00  0.00    +0.000 C 
ATOM     52  C   UNL     1     -45.488 -58.818 -85.615  0.00  0.00    +0.000 C 
ATOM     53  C   UNL     1     -43.525 -57.304 -90.801  0.00  0.00    +0.000 C 
ATOM     54  C   UNL     1     -42.083 -58.792 -92.254  0.00  0.00    +0.000 A 
ATOM     55  C   UNL     1     -46.151 -58.431 -86.808  0.00  0.00    +0.000 C 
ATOM     56  C   UNL     1     -40.582 -63.503 -88.241  0.00  0.00    +0.000 C 
ATOM     57  C   UNL     1     -40.574 -65.364 -83.940  0.00  0.00    +0.000 C 
ATOM     58  C   UNL     1     -42.378 -62.664 -93.034  0.00  0.00    +0.000 C 
ATOM     59  C   UNL     1     -48.538 -59.025 -80.880  0.00  0.00    +0.000 C 
ATOM     60  C   UNL     1     -40.625 -64.141 -86.866  0.00  0.00    +0.000 C 
ATOM     61  C   UNL     1     -46.085 -57.127 -88.415  0.00  0.00    +0.000 C 
ATOM     62  C   UNL     1     -44.447 -57.920 -83.720  0.00  0.00    +0.000 C 
ATOM     63  C   UNL     1     -39.359 -63.587 -87.663  0.00  0.00    +0.000 C 
ATOM     64  H   UNL     1     -46.378 -60.985 -83.487  0.00  0.00    +0.000 HD
ATOM     65  H   UNL     1     -44.152 -61.022 -89.341  0.00  0.00    +0.000 HD
ATOM     66  H   UNL     1     -42.440 -64.968 -86.681  0.00  0.00    +0.000 HD
ATOM     67  H   UNL     1     -42.237 -63.091 -89.284  0.00  0.00    +0.000 HD
ATOM     68  C   UNL     1     -48.058 -62.132 -80.313  0.00  0.00    +0.000 C 
ATOM     69  C   UNL     1     -48.941 -61.180 -79.733  0.00  0.00    +0.000 C 
ATOM     70  C   UNL     1     -49.339 -60.209 -80.771  0.00  0.00    +0.000 C 
ATOM     71  C   UNL     1     -47.439 -67.637 -81.487  0.00  0.00    +0.000 C 
ATOM     72  C   UNL     1     -48.704 -67.221 -81.483  0.00  0.00    +0.000 C 
ATOM     73  C   UNL     1     -46.717 -68.585 -82.217  0.00  0.00    +0.000 C 
ATOM     74  C   UNL     1     -42.075 -69.308 -84.322  0.00  0.00    +0.000 C 
ATOM     75  C   UNL     1     -40.739 -69.608 -84.547  0.00  0.00    +0.000 C 
ATOM     76  C   UNL     1     -40.312 -70.944 -85.192  0.00  0.00    +0.000 C 
ATOM     77  C   UNL     1     -40.046 -68.547 -85.099  0.00  0.00    +0.000 C 
ATOM     78  C   UNL     1     -48.327 -57.441 -89.647  0.00  0.00    +0.000 C 
ATOM     79  C   UNL     1     -49.174 -57.076 -90.606  0.00  0.00    +0.000 C 
ATOM     80  C   UNL     1     -47.310 -56.807 -88.931  0.00  0.00    +0.000 C 
ATOM     81  C   UNL     1     -40.119 -64.072 -93.396  0.00  0.00    +0.000 C 
ATOM     82  C   UNL     1     -39.542 -64.632 -94.654  0.00  0.00    +0.000 C 
ATOM     83  C   UNL     1     -39.497 -64.262 -92.137  0.00  0.00    +0.000 C 
ENDROOT
BRANCH  69  84
ATOM     84  C   UNL     1     -49.100 -60.924 -78.350  0.00  0.00    +0.000 C 
ATOM     85  C   UNL     1     -49.242 -60.709 -77.177  0.00  0.00    +0.000 C 
BRANCH  85  86
ATOM     86  C   UNL     1     -49.428 -60.433 -75.681  0.00  0.00    +0.000 C 
ATOM     87  C   UNL     1     -49.595 -60.196 -74.381  0.00  0.00    +0.000 C 
ENDBRANCH  85  86
ENDBRANCH  69  84
BRANCH  13  88
ATOM     88  C   UNL     1     -46.133 -63.621 -82.988  0.00  0.00    +0.000 C 
BRANCH  88  89
ATOM     89  O   UNL     1     -45.928 -64.107 -84.205  0.00  0.00    +0.000 OA
ATOM     90  H   UNL     1     -46.554 -64.831 -84.385  0.00  0.00    +0.000 HD
ENDBRANCH  88  89
ENDBRANCH  13  88
TORSDOF 4
ENDMDL
MODEL 6
REMARK VINA RESULT:      -7.9     22.075     29.304
REMARK  Name = Cyclosporin_A.pdbqt.pdb
REMARK  4 active torsions:
REMARK  status: ('A' for Active; 'I' for Inactive)
REMARK    1  A    between atoms: N_13  and  C_36
REMARK    2  A    between atoms: C_36  and  O_70
REMARK    3  A    between atoms: C_72  and  C_73
REMARK    4  A    between atoms: C_75  and  C_76
REMARK                            x       y       z     vdW  Elec       q    Type
REMARK                         _______ _______ _______ _____ _____    ______ ____
ROOT
ATOM      1  O   UNL     1     -59.636 -60.610 -56.630  0.00  0.00    +0.000 OA
ATOM      2  O   UNL     1     -55.135 -61.730 -54.438  0.00  0.00    +0.000 OA
ATOM      3  O   UNL     1     -54.696 -58.144 -51.298  0.00  0.00    +0.000 OA
ATOM      4  O   UNL     1     -60.892 -55.906 -57.177  0.00  0.00    +0.000 OA
ATOM      5  O   UNL     1     -56.777 -62.732 -50.711  0.00  0.00    +0.000 OA
ATOM      6  O   UNL     1     -65.096 -57.549 -45.140  0.00  0.00    +0.000 OA
ATOM      7  O   UNL     1     -64.803 -59.519 -55.520  0.00  0.00    +0.000 OA
ATOM      8  O   UNL     1     -65.263 -54.611 -49.092  0.00  0.00    +0.000 OA
ATOM      9  O   UNL     1     -61.095 -60.162 -44.340  0.00  0.00    +0.000 OA
ATOM     10  O   UNL     1     -66.117 -56.349 -52.714  0.00  0.00    +0.000 OA
ATOM     11  O   UNL     1     -59.965 -62.513 -47.775  0.00  0.00    +0.000 OA
ATOM     12  N   UNL     1     -56.683 -60.635 -54.832  0.00  0.00    +0.000 NA
ATOM     13  N   UNL     1     -58.946 -58.613 -55.480  0.00  0.00    +0.000 NA
ATOM     14  N   UNL     1     -54.705 -59.781 -52.419  0.00  0.00    +0.000 NA
ATOM     15  N   UNL     1     -56.101 -60.471 -49.646  0.00  0.00    +0.000 NA
ATOM     16  N   UNL     1     -61.731 -57.294 -55.355  0.00  0.00    +0.000 NA
ATOM     17  N   UNL     1     -62.848 -56.965 -45.526  0.00  0.00    +0.000 N 
ATOM     18  N   UNL     1     -63.998 -56.440 -48.360  0.00  0.00    +0.000 N 
ATOM     19  N   UNL     1     -65.107 -56.609 -51.040  0.00  0.00    +0.000 NA
ATOM     20  N   UNL     1     -63.678 -58.901 -53.642  0.00  0.00    +0.000 NA
ATOM     21  N   UNL     1     -59.008 -60.572 -48.991  0.00  0.00    +0.000 NA
ATOM     22  N   UNL     1     -61.389 -59.472 -46.636  0.00  0.00    +0.000 NA
ATOM     23  C   UNL     1     -57.928 -60.970 -55.275  0.00  0.00    +0.000 C 
ATOM     24  C   UNL     1     -55.750 -59.627 -53.238  0.00  0.00    +0.000 C 
ATOM     25  C   UNL     1     -59.483 -57.711 -56.378  0.00  0.00    +0.000 C 
ATOM     26  C   UNL     1     -58.212 -62.161 -55.920  0.00  0.00    +0.000 C 
ATOM     27  C   UNL     1     -55.404 -58.269 -53.716  0.00  0.00    +0.000 C 
ATOM     28  C   UNL     1     -58.788 -59.983 -55.711  0.00  0.00    +0.000 C 
ATOM     29  C   UNL     1     -55.817 -60.866 -53.778  0.00  0.00    +0.000 C 
ATOM     30  C   UNL     1     -55.096 -60.437 -50.478  0.00  0.00    +0.000 C 
ATOM     31  C   UNL     1     -55.217 -59.334 -51.269  0.00  0.00    +0.000 C 
ATOM     32  C   UNL     1     -60.626 -56.797 -56.079  0.00  0.00    +0.000 C 
ATOM     33  C   UNL     1     -56.894 -62.701 -56.042  0.00  0.00    +0.000 C 
ATOM     34  C   UNL     1     -59.131 -61.873 -56.873  0.00  0.00    +0.000 C 
ATOM     35  C   UNL     1     -56.138 -61.823 -55.281  0.00  0.00    +0.000 C 
ATOM     36  C   UNL     1     -54.158 -58.477 -52.561  0.00  0.00    +0.000 C 
ATOM     37  C   UNL     1     -62.868 -57.919 -55.925  0.00  0.00    +0.000 C 
ATOM     38  C   UNL     1     -64.692 -56.825 -47.242  0.00  0.00    +0.000 A 
ATOM     39  C   UNL     1     -56.816 -61.369 -50.317  0.00  0.00    +0.000 C 
ATOM     40  C   UNL     1     -62.211 -58.067 -44.900  0.00  0.00    +0.000 C 
ATOM     41  C   UNL     1     -64.399 -55.518 -50.661  0.00  0.00    +0.000 C 
ATOM     42  C   UNL     1     -55.179 -60.969 -48.593  0.00  0.00    +0.000 C 
ATOM     43  C   UNL     1     -66.089 -57.079 -47.084  0.00  0.00    +0.000 A 
ATOM     44  C   UNL     1     -62.261 -57.483 -43.186  0.00  0.00    +0.000 C 
ATOM     45  C   UNL     1     -58.176 -61.254 -49.715  0.00  0.00    +0.000 C 
ATOM     46  C   UNL     1     -65.438 -54.441 -50.499  0.00  0.00    +0.000 C 
ATOM     47  C   UNL     1     -62.968 -57.740 -57.338  0.00  0.00    +0.000 C 
ATOM     48  C   UNL     1     -64.123 -57.106 -46.005  0.00  0.00    +0.000 A 
ATOM     49  C   UNL     1     -63.690 -58.678 -55.158  0.00  0.00    +0.000 C 
ATOM     50  C   UNL     1     -64.464 -55.626 -49.281  0.00  0.00    +0.000 C 
ATOM     51  C   UNL     1     -61.616 -59.243 -45.292  0.00  0.00    +0.000 C 
ATOM     52  C   UNL     1     -64.162 -57.702 -52.951  0.00  0.00    +0.000 C 
ATOM     53  C   UNL     1     -67.188 -57.020 -48.112  0.00  0.00    +0.000 C 
ATOM     54  C   UNL     1     -66.286 -57.520 -45.800  0.00  0.00    +0.000 A 
ATOM     55  C   UNL     1     -64.790 -56.569 -52.373  0.00  0.00    +0.000 C 
ATOM     56  C   UNL     1     -60.834 -60.529 -47.133  0.00  0.00    +0.000 C 
ATOM     57  C   UNL     1     -57.897 -62.501 -50.206  0.00  0.00    +0.000 C 
ATOM     58  C   UNL     1     -62.755 -56.705 -44.202  0.00  0.00    +0.000 C 
ATOM     59  C   UNL     1     -62.407 -57.276 -58.290  0.00  0.00    +0.000 C 
ATOM     60  C   UNL     1     -59.849 -61.117 -48.125  0.00  0.00    +0.000 C 
ATOM     61  C   UNL     1     -66.477 -55.922 -51.363  0.00  0.00    +0.000 C 
ATOM     62  C   UNL     1     -64.612 -59.562 -54.298  0.00  0.00    +0.000 C 
ATOM     63  C   UNL     1     -60.714 -61.874 -47.017  0.00  0.00    +0.000 C 
ATOM     64  H   UNL     1     -61.429 -57.833 -54.543  0.00  0.00    +0.000 HD
ATOM     65  H   UNL     1     -63.173 -56.990 -48.587  0.00  0.00    +0.000 HD
ATOM     66  H   UNL     1     -58.836 -59.574 -48.903  0.00  0.00    +0.000 HD
ATOM     67  H   UNL     1     -61.353 -58.599 -47.154  0.00  0.00    +0.000 HD
ATOM     68  C   UNL     1     -59.320 -57.821 -57.668  0.00  0.00    +0.000 C 
ATOM     69  C   UNL     1     -59.995 -57.368 -58.836  0.00  0.00    +0.000 C 
ATOM     70  C   UNL     1     -61.168 -56.570 -58.426  0.00  0.00    +0.000 C 
ATOM     71  C   UNL     1     -54.416 -57.541 -54.853  0.00  0.00    +0.000 C 
ATOM     72  C   UNL     1     -54.695 -56.453 -55.569  0.00  0.00    +0.000 C 
ATOM     73  C   UNL     1     -53.770 -57.781 -53.637  0.00  0.00    +0.000 C 
ATOM     74  C   UNL     1     -54.077 -60.813 -49.489  0.00  0.00    +0.000 C 
ATOM     75  C   UNL     1     -53.976 -61.864 -48.587  0.00  0.00    +0.000 C 
ATOM     76  C   UNL     1     -52.907 -61.868 -47.473  0.00  0.00    +0.000 C 
ATOM     77  C   UNL     1     -55.205 -62.260 -48.097  0.00  0.00    +0.000 C 
ATOM     78  C   UNL     1     -66.296 -53.352 -51.299  0.00  0.00    +0.000 C 
ATOM     79  C   UNL     1     -66.824 -52.168 -50.997  0.00  0.00    +0.000 C 
ATOM     80  C   UNL     1     -66.807 -54.616 -51.597  0.00  0.00    +0.000 C 
ATOM     81  C   UNL     1     -61.714 -58.447 -42.442  0.00  0.00    +0.000 C 
ATOM     82  C   UNL     1     -61.569 -58.326 -40.962  0.00  0.00    +0.000 C 
ATOM     83  C   UNL     1     -61.252 -59.584 -43.149  0.00  0.00    +0.000 C 
ENDROOT
BRANCH  69  84
ATOM     84  C   UNL     1     -59.855 -57.902 -60.139  0.00  0.00    +0.000 C 
ATOM     85  C   UNL     1     -59.743 -58.359 -61.244  0.00  0.00    +0.000 C 
BRANCH  85  86
ATOM     86  C   UNL     1     -59.602 -58.946 -62.652  0.00  0.00    +0.000 C 
ATOM     87  C   UNL     1     -59.477 -59.460 -63.875  0.00  0.00    +0.000 C 
ENDBRANCH  85  86
ENDBRANCH  69  84
BRANCH  13  88
ATOM     88  C   UNL     1     -58.791 -58.161 -54.107  0.00  0.00    +0.000 C 
BRANCH  88  89
ATOM     89  O   UNL     1     -58.674 -57.748 -52.852  0.00  0.00    +0.000 OA
ATOM     90  H   UNL     1     -58.123 -58.371 -52.346  0.00  0.00    +0.000 HD
ENDBRANCH  88  89
ENDBRANCH  13  88
TORSDOF 4
ENDMDL
MODEL 7
REMARK VINA RESULT:      -7.8     59.323     66.798
REMARK  Name = Cyclosporin_A.pdbqt.pdb
REMARK  4 active torsions:
REMARK  status: ('A' for Active; 'I' for Inactive)
REMARK    1  A    between atoms: N_13  and  C_36
REMARK    2  A    between atoms: C_36  and  O_70
REMARK    3  A    between atoms: C_72  and  C_73
REMARK    4  A    between atoms: C_75  and  C_76
REMARK                            x       y       z     vdW  Elec       q    Type
REMARK                         _______ _______ _______ _____ _____    ______ ____
ROOT
ATOM      1  O   UNL     1     -60.633 -51.511 -17.353  0.00  0.00    +0.000 OA
ATOM      2  O   UNL     1     -63.166 -48.270 -14.288  0.00  0.00    +0.000 OA
ATOM      3  O   UNL     1     -67.166 -50.745 -13.400  0.00  0.00    +0.000 OA
ATOM      4  O   UNL     1     -63.191 -54.369 -20.402  0.00  0.00    +0.000 OA
ATOM      5  O   UNL     1     -62.784 -50.640 -10.848  0.00  0.00    +0.000 OA
ATOM      6  O   UNL     1     -63.768 -61.835  -9.953  0.00  0.00    +0.000 OA
ATOM      7  O   UNL     1     -58.849 -56.592 -17.700  0.00  0.00    +0.000 OA
ATOM      8  O   UNL     1     -64.458 -61.682 -14.828  0.00  0.00    +0.000 OA
ATOM      9  O   UNL     1     -64.423 -57.786  -7.373  0.00  0.00    +0.000 OA
ATOM     10  O   UNL     1     -61.414 -60.161 -17.129  0.00  0.00    +0.000 OA
ATOM     11  O   UNL     1     -62.136 -54.474  -8.922  0.00  0.00    +0.000 OA
ATOM     12  N   UNL     1     -62.946 -49.840 -15.401  0.00  0.00    +0.000 NA
ATOM     13  N   UNL     1     -62.908 -52.291 -17.304  0.00  0.00    +0.000 NA
ATOM     14  N   UNL     1     -65.560 -49.586 -13.514  0.00  0.00    +0.000 NA
ATOM     15  N   UNL     1     -65.217 -51.513 -11.008  0.00  0.00    +0.000 NA
ATOM     16  N   UNL     1     -62.320 -55.162 -18.266  0.00  0.00    +0.000 NA
ATOM     17  N   UNL     1     -65.360 -60.128 -10.261  0.00  0.00    +0.000 N 
ATOM     18  N   UNL     1     -64.092 -60.153 -13.094  0.00  0.00    +0.000 N 
ATOM     19  N   UNL     1     -62.390 -59.902 -15.435  0.00  0.00    +0.000 NA
ATOM     20  N   UNL     1     -60.611 -56.708 -16.266  0.00  0.00    +0.000 NA
ATOM     21  N   UNL     1     -63.696 -54.070 -10.811  0.00  0.00    +0.000 NA
ATOM     22  N   UNL     1     -63.961 -57.410  -9.713  0.00  0.00    +0.000 NA
ATOM     23  C   UNL     1     -61.824 -50.518 -15.780  0.00  0.00    +0.000 C 
ATOM     24  C   UNL     1     -64.786 -50.168 -14.434  0.00  0.00    +0.000 C 
ATOM     25  C   UNL     1     -62.949 -52.761 -18.602  0.00  0.00    +0.000 C 
ATOM     26  C   UNL     1     -60.556 -49.967 -15.758  0.00  0.00    +0.000 C 
ATOM     27  C   UNL     1     -65.820 -50.295 -15.486  0.00  0.00    +0.000 C 
ATOM     28  C   UNL     1     -61.906 -51.470 -16.776  0.00  0.00    +0.000 C 
ATOM     29  C   UNL     1     -63.642 -49.462 -14.267  0.00  0.00    +0.000 C 
ATOM     30  C   UNL     1     -65.529 -50.387 -11.588  0.00  0.00    +0.000 C 
ATOM     31  C   UNL     1     -65.998 -50.653 -12.840  0.00  0.00    +0.000 C 
ATOM     32  C   UNL     1     -63.071 -54.202 -18.977  0.00  0.00    +0.000 C 
ATOM     33  C   UNL     1     -60.874 -48.620 -15.399  0.00  0.00    +0.000 C 
ATOM     34  C   UNL     1     -59.906 -50.453 -16.843  0.00  0.00    +0.000 C 
ATOM     35  C   UNL     1     -62.225 -48.700 -15.097  0.00  0.00    +0.000 C 
ATOM     36  C   UNL     1     -66.789 -49.662 -14.224  0.00  0.00    +0.000 C 
ATOM     37  C   UNL     1     -61.003 -55.575 -18.589  0.00  0.00    +0.000 C 
ATOM     38  C   UNL     1     -63.799 -60.989 -12.047  0.00  0.00    +0.000 A 
ATOM     39  C   UNL     1     -63.907 -51.427 -11.217  0.00  0.00    +0.000 C 
ATOM     40  C   UNL     1     -65.131 -59.381  -9.078  0.00  0.00    +0.000 C 
ATOM     41  C   UNL     1     -63.737 -59.963 -15.572  0.00  0.00    +0.000 C 
ATOM     42  C   UNL     1     -65.748 -50.972  -9.730  0.00  0.00    +0.000 C 
ATOM     43  C   UNL     1     -62.862 -62.065 -11.980  0.00  0.00    +0.000 A 
ATOM     44  C   UNL     1     -66.134 -60.362  -7.930  0.00  0.00    +0.000 C 
ATOM     45  C   UNL     1     -63.418 -52.812 -10.958  0.00  0.00    +0.000 C 
ATOM     46  C   UNL     1     -63.990 -61.336 -16.133  0.00  0.00    +0.000 C 
ATOM     47  C   UNL     1     -60.583 -55.170 -19.892  0.00  0.00    +0.000 C 
ATOM     48  C   UNL     1     -64.352 -60.901 -10.774  0.00  0.00    +0.000 A 
ATOM     49  C   UNL     1     -60.238 -56.210 -17.666  0.00  0.00    +0.000 C 
ATOM     50  C   UNL     1     -64.102 -60.518 -14.356  0.00  0.00    +0.000 C 
ATOM     51  C   UNL     1     -64.469 -58.229  -8.723  0.00  0.00    +0.000 C 
ATOM     52  C   UNL     1     -61.459 -57.899 -16.362  0.00  0.00    +0.000 C 
ATOM     53  C   UNL     1     -61.913 -62.565 -13.036  0.00  0.00    +0.000 C 
ATOM     54  C   UNL     1     -62.872 -62.542 -10.695  0.00  0.00    +0.000 A 
ATOM     55  C   UNL     1     -62.136 -59.133 -16.540  0.00  0.00    +0.000 C 
ATOM     56  C   UNL     1     -63.325 -56.300  -9.515  0.00  0.00    +0.000 C 
ATOM     57  C   UNL     1     -62.486 -51.844 -10.697  0.00  0.00    +0.000 C 
ATOM     58  C   UNL     1     -66.068 -60.695  -9.259  0.00  0.00    +0.000 C 
ATOM     59  C   UNL     1     -60.916 -54.543 -20.857  0.00  0.00    +0.000 C 
ATOM     60  C   UNL     1     -63.112 -54.854  -9.916  0.00  0.00    +0.000 C 
ATOM     61  C   UNL     1     -61.995 -61.178 -16.254  0.00  0.00    +0.000 C 
ATOM     62  C   UNL     1     -59.354 -56.907 -16.615  0.00  0.00    +0.000 C 
ATOM     63  C   UNL     1     -62.442 -55.659  -8.712  0.00  0.00    +0.000 C 
ATOM     64  H   UNL     1     -62.379 -55.006 -17.259  0.00  0.00    +0.000 HD
ATOM     65  H   UNL     1     -64.082 -59.157 -12.889  0.00  0.00    +0.000 HD
ATOM     66  H   UNL     1     -64.563 -54.405 -11.222  0.00  0.00    +0.000 HD
ATOM     67  H   UNL     1     -64.444 -57.557 -10.594  0.00  0.00    +0.000 HD
ATOM     68  C   UNL     1     -62.510 -52.067 -19.616  0.00  0.00    +0.000 C 
ATOM     69  C   UNL     1     -62.047 -52.343 -20.933  0.00  0.00    +0.000 C 
ATOM     70  C   UNL     1     -62.104 -53.801 -21.160  0.00  0.00    +0.000 C 
ATOM     71  C   UNL     1     -66.529 -49.366 -16.682  0.00  0.00    +0.000 C 
ATOM     72  C   UNL     1     -66.922 -49.782 -17.885  0.00  0.00    +0.000 C 
ATOM     73  C   UNL     1     -67.150 -49.225 -15.438  0.00  0.00    +0.000 C 
ATOM     74  C   UNL     1     -66.186 -49.796 -10.413  0.00  0.00    +0.000 C 
ATOM     75  C   UNL     1     -65.783 -49.613  -9.098  0.00  0.00    +0.000 C 
ATOM     76  C   UNL     1     -66.786 -49.196  -8.001  0.00  0.00    +0.000 C 
ATOM     77  C   UNL     1     -64.954 -50.625  -8.653  0.00  0.00    +0.000 C 
ATOM     78  C   UNL     1     -64.020 -62.187 -17.489  0.00  0.00    +0.000 C 
ATOM     79  C   UNL     1     -64.695 -63.251 -17.913  0.00  0.00    +0.000 C 
ATOM     80  C   UNL     1     -62.687 -61.924 -17.167  0.00  0.00    +0.000 C 
ATOM     81  C   UNL     1     -65.997 -59.795  -6.729  0.00  0.00    +0.000 C 
ATOM     82  C   UNL     1     -66.689 -60.322  -5.516  0.00  0.00    +0.000 C 
ATOM     83  C   UNL     1     -65.176 -58.642  -6.682  0.00  0.00    +0.000 C 
ENDROOT
BRANCH  69  84
ATOM     84  C   UNL     1     -61.278 -51.476 -21.745  0.00  0.00    +0.000 C 
ATOM     85  C   UNL     1     -60.619 -50.741 -22.428  0.00  0.00    +0.000 C 
BRANCH  85  86
ATOM     86  C   UNL     1     -59.774 -49.803 -23.297  0.00  0.00    +0.000 C 
ATOM     87  C   UNL     1     -59.036 -48.990 -24.050  0.00  0.00    +0.000 C 
ENDBRANCH  85  86
ENDBRANCH  69  84
BRANCH  13  88
ATOM     88  C   UNL     1     -63.811 -52.913 -16.349  0.00  0.00    +0.000 C 
BRANCH  88  89
ATOM     89  O   UNL     1     -64.641 -53.497 -15.496  0.00  0.00    +0.000 OA
ATOM     90  H   UNL     1     -65.560 -53.389 -15.798  0.00  0.00    +0.000 HD
ENDBRANCH  88  89
ENDBRANCH  13  88
TORSDOF 4
ENDMDL
MODEL 8
REMARK VINA RESULT:      -7.8      4.009      8.265
REMARK  Name = Cyclosporin_A.pdbqt.pdb
REMARK  4 active torsions:
REMARK  status: ('A' for Active; 'I' for Inactive)
REMARK    1  A    between atoms: N_13  and  C_36
REMARK    2  A    between atoms: C_36  and  O_70
REMARK    3  A    between atoms: C_72  and  C_73
REMARK    4  A    between atoms: C_75  and  C_76
REMARK                            x       y       z     vdW  Elec       q    Type
REMARK                         _______ _______ _______ _____ _____    ______ ____
ROOT
ATOM      1  O   UNL     1     -67.919 -67.967 -80.795  0.00  0.00    +0.000 OA
ATOM      2  O   UNL     1     -63.507 -69.540 -82.885  0.00  0.00    +0.000 OA
ATOM      3  O   UNL     1     -60.483 -66.154 -81.365  0.00  0.00    +0.000 OA
ATOM      4  O   UNL     1     -68.722 -63.159 -80.306  0.00  0.00    +0.000 OA
ATOM      5  O   UNL     1     -61.721 -70.589 -79.237  0.00  0.00    +0.000 OA
ATOM      6  O   UNL     1     -62.134 -65.045 -69.429  0.00  0.00    +0.000 OA
ATOM      7  O   UNL     1     -70.186 -66.530 -76.113  0.00  0.00    +0.000 OA
ATOM      8  O   UNL     1     -65.054 -61.917 -71.871  0.00  0.00    +0.000 OA
ATOM      9  O   UNL     1     -59.243 -67.998 -71.958  0.00  0.00    +0.000 OA
ATOM     10  O   UNL     1     -68.551 -63.407 -73.427  0.00  0.00    +0.000 OA
ATOM     11  O   UNL     1     -61.411 -70.262 -74.921  0.00  0.00    +0.000 OA
ATOM     12  N   UNL     1     -64.683 -68.309 -81.962  0.00  0.00    +0.000 NA
ATOM     13  N   UNL     1     -66.423 -66.088 -80.671  0.00  0.00    +0.000 NA
ATOM     14  N   UNL     1     -61.502 -67.730 -82.012  0.00  0.00    +0.000 NA
ATOM     15  N   UNL     1     -60.277 -68.441 -79.164  0.00  0.00    +0.000 NA
ATOM     16  N   UNL     1     -67.949 -64.563 -78.467  0.00  0.00    +0.000 NA
ATOM     17  N   UNL     1     -60.981 -64.620 -71.438  0.00  0.00    +0.000 N 
ATOM     18  N   UNL     1     -63.855 -63.872 -72.339  0.00  0.00    +0.000 N 
ATOM     19  N   UNL     1     -66.643 -63.825 -73.153  0.00  0.00    +0.000 NA
ATOM     20  N   UNL     1     -67.972 -66.093 -75.828  0.00  0.00    +0.000 NA
ATOM     21  N   UNL     1     -61.591 -68.345 -76.489  0.00  0.00    +0.000 NA
ATOM     22  N   UNL     1     -61.150 -67.177 -73.192  0.00  0.00    +0.000 NA
ATOM     23  C   UNL     1     -65.833 -68.525 -81.262  0.00  0.00    +0.000 C 
ATOM     24  C   UNL     1     -62.775 -67.455 -81.718  0.00  0.00    +0.000 C 
ATOM     25  C   UNL     1     -67.378 -65.105 -80.845  0.00  0.00    +0.000 C 
ATOM     26  C   UNL     1     -66.614 -69.657 -81.409  0.00  0.00    +0.000 C 
ATOM     27  C   UNL     1     -62.815 -66.107 -82.329  0.00  0.00    +0.000 C 
ATOM     28  C   UNL     1     -66.623 -67.453 -80.897  0.00  0.00    +0.000 C 
ATOM     29  C   UNL     1     -63.344 -68.658 -81.967  0.00  0.00    +0.000 C 
ATOM     30  C   UNL     1     -60.294 -68.446 -80.469  0.00  0.00    +0.000 C 
ATOM     31  C   UNL     1     -60.888 -67.299 -80.905  0.00  0.00    +0.000 C 
ATOM     32  C   UNL     1     -67.779 -64.119 -79.796  0.00  0.00    +0.000 C 
ATOM     33  C   UNL     1     -65.934 -70.292 -82.494  0.00  0.00    +0.000 C 
ATOM     34  C   UNL     1     -67.903 -69.253 -81.302  0.00  0.00    +0.000 C 
ATOM     35  C   UNL     1     -64.795 -69.513 -82.632  0.00  0.00    +0.000 C 
ATOM     36  C   UNL     1     -61.158 -66.467 -82.567  0.00  0.00    +0.000 C 
ATOM     37  C   UNL     1     -69.156 -65.069 -77.922  0.00  0.00    +0.000 C 
ATOM     38  C   UNL     1     -63.453 -64.255 -71.085  0.00  0.00    +0.000 A 
ATOM     39  C   UNL     1     -61.321 -69.247 -79.002  0.00  0.00    +0.000 C 
ATOM     40  C   UNL     1     -60.194 -65.797 -71.506  0.00  0.00    +0.000 C 
ATOM     41  C   UNL     1     -65.813 -62.812 -73.499  0.00  0.00    +0.000 C 
ATOM     42  C   UNL     1     -58.927 -69.060 -79.205  0.00  0.00    +0.000 C 
ATOM     43  C   UNL     1     -64.223 -64.406 -69.892  0.00  0.00    +0.000 A 
ATOM     44  C   UNL     1     -58.842 -65.294 -70.409  0.00  0.00    +0.000 C 
ATOM     45  C   UNL     1     -61.693 -69.055 -77.570  0.00  0.00    +0.000 C 
ATOM     46  C   UNL     1     -66.242 -61.666 -72.623  0.00  0.00    +0.000 C 
ATOM     47  C   UNL     1     -70.300 -64.816 -78.736  0.00  0.00    +0.000 C 
ATOM     48  C   UNL     1     -62.161 -64.639 -70.742  0.00  0.00    +0.000 A 
ATOM     49  C   UNL     1     -69.137 -65.797 -76.777  0.00  0.00    +0.000 C 
ATOM     50  C   UNL     1     -64.791 -62.981 -72.579  0.00  0.00    +0.000 C 
ATOM     51  C   UNL     1     -60.228 -66.996 -72.179  0.00  0.00    +0.000 C 
ATOM     52  C   UNL     1     -67.633 -64.895 -75.055  0.00  0.00    +0.000 C 
ATOM     53  C   UNL     1     -65.702 -64.212 -69.684  0.00  0.00    +0.000 C 
ATOM     54  C   UNL     1     -63.387 -64.891 -68.919  0.00  0.00    +0.000 A 
ATOM     55  C   UNL     1     -67.478 -63.745 -74.237  0.00  0.00    +0.000 C 
ATOM     56  C   UNL     1     -61.282 -68.250 -73.904  0.00  0.00    +0.000 C 
ATOM     57  C   UNL     1     -62.008 -70.295 -78.057  0.00  0.00    +0.000 C 
ATOM     58  C   UNL     1     -59.872 -64.432 -70.687  0.00  0.00    +0.000 C 
ATOM     59  C   UNL     1     -70.649 -64.352 -79.784  0.00  0.00    +0.000 C 
ATOM     60  C   UNL     1     -61.489 -68.865 -75.274  0.00  0.00    +0.000 C 
ATOM     61  C   UNL     1     -67.689 -63.017 -72.311  0.00  0.00    +0.000 C 
ATOM     62  C   UNL     1     -69.121 -66.648 -75.493  0.00  0.00    +0.000 C 
ATOM     63  C   UNL     1     -61.233 -69.604 -73.883  0.00  0.00    +0.000 C 
ATOM     64  H   UNL     1     -67.177 -65.163 -78.175  0.00  0.00    +0.000 HD
ATOM     65  H   UNL     1     -63.564 -64.473 -73.106  0.00  0.00    +0.000 HD
ATOM     66  H   UNL     1     -61.328 -67.369 -76.598  0.00  0.00    +0.000 HD
ATOM     67  H   UNL     1     -61.456 -66.286 -73.572  0.00  0.00    +0.000 HD
ATOM     68  C   UNL     1     -68.288 -65.165 -81.778  0.00  0.00    +0.000 C 
ATOM     69  C   UNL     1     -69.577 -64.605 -82.000  0.00  0.00    +0.000 C 
ATOM     70  C   UNL     1     -69.921 -63.738 -80.856  0.00  0.00    +0.000 C 
ATOM     71  C   UNL     1     -63.018 -65.405 -83.834  0.00  0.00    +0.000 C 
ATOM     72  C   UNL     1     -63.654 -64.265 -84.099  0.00  0.00    +0.000 C 
ATOM     73  C   UNL     1     -61.691 -65.752 -83.565  0.00  0.00    +0.000 C 
ATOM     74  C   UNL     1     -58.922 -68.947 -80.629  0.00  0.00    +0.000 C 
ATOM     75  C   UNL     1     -58.250 -70.045 -80.110  0.00  0.00    +0.000 C 
ATOM     76  C   UNL     1     -56.718 -70.185 -80.241  0.00  0.00    +0.000 C 
ATOM     77  C   UNL     1     -58.669 -70.366 -78.833  0.00  0.00    +0.000 C 
ATOM     78  C   UNL     1     -67.304 -60.476 -72.491  0.00  0.00    +0.000 C 
ATOM     79  C   UNL     1     -67.297 -59.270 -71.928  0.00  0.00    +0.000 C 
ATOM     80  C   UNL     1     -67.964 -61.680 -72.242  0.00  0.00    +0.000 C 
ATOM     81  C   UNL     1     -58.007 -66.333 -70.338  0.00  0.00    +0.000 C 
ATOM     82  C   UNL     1     -56.755 -66.295 -69.525  0.00  0.00    +0.000 C 
ATOM     83  C   UNL     1     -58.366 -67.467 -71.106  0.00  0.00    +0.000 C 
ENDROOT
BRANCH  69  84
ATOM     84  C   UNL     1     -70.548 -65.085 -82.911  0.00  0.00    +0.000 C 
ATOM     85  C   UNL     1     -71.370 -65.500 -83.683  0.00  0.00    +0.000 C 
BRANCH  85  86
ATOM     86  C   UNL     1     -72.416 -66.033 -84.667  0.00  0.00    +0.000 C 
ATOM     87  C   UNL     1     -73.328 -66.497 -85.519  0.00  0.00    +0.000 C 
ENDBRANCH  85  86
ENDBRANCH  69  84
BRANCH  13  88
ATOM     88  C   UNL     1     -65.221 -65.716 -79.944  0.00  0.00    +0.000 C 
BRANCH  88  89
ATOM     89  O   UNL     1     -64.138 -65.373 -79.259  0.00  0.00    +0.000 OA
ATOM     90  H   UNL     1     -63.515 -64.898 -79.838  0.00  0.00    +0.000 HD
ENDBRANCH  88  89
ENDBRANCH  13  88
TORSDOF 4
ENDMDL
MODEL 9
REMARK VINA RESULT:      -7.8     11.581     22.501
REMARK  Name = Cyclosporin_A.pdbqt.pdb
REMARK  4 active torsions:
REMARK  status: ('A' for Active; 'I' for Inactive)
REMARK    1  A    between atoms: N_13  and  C_36
REMARK    2  A    between atoms: C_36  and  O_70
REMARK    3  A    between atoms: C_72  and  C_73
REMARK    4  A    between atoms: C_75  and  C_76
REMARK                            x       y       z     vdW  Elec       q    Type
REMARK                         _______ _______ _______ _____ _____    ______ ____
ROOT
ATOM      1  O   UNL     1     -77.713 -52.774 -66.959  0.00  0.00    +0.000 OA
ATOM      2  O   UNL     1     -76.877 -49.384 -70.717  0.00  0.00    +0.000 OA
ATOM      3  O   UNL     1     -72.111 -49.581 -71.124  0.00  0.00    +0.000 OA
ATOM      4  O   UNL     1     -74.366 -53.242 -63.411  0.00  0.00    +0.000 OA
ATOM      5  O   UNL     1     -75.685 -52.247 -73.541  0.00  0.00    +0.000 OA
ATOM      6  O   UNL     1     -69.120 -61.276 -71.966  0.00  0.00    +0.000 OA
ATOM      7  O   UNL     1     -76.719 -57.862 -65.462  0.00  0.00    +0.000 OA
ATOM      8  O   UNL     1     -69.067 -59.819 -67.261  0.00  0.00    +0.000 OA
ATOM      9  O   UNL     1     -70.350 -58.074 -75.389  0.00  0.00    +0.000 OA
ATOM     10  O   UNL     1     -72.665 -59.646 -65.287  0.00  0.00    +0.000 OA
ATOM     11  O   UNL     1     -74.129 -56.168 -74.560  0.00  0.00    +0.000 OA
ATOM     12  N   UNL     1     -76.382 -50.585 -69.282  0.00  0.00    +0.000 NA
ATOM     13  N   UNL     1     -75.361 -52.271 -66.885  0.00  0.00    +0.000 NA
ATOM     14  N   UNL     1     -74.085 -49.412 -71.234  0.00  0.00    +0.000 NA
ATOM     15  N   UNL     1     -73.172 -51.700 -73.245  0.00  0.00    +0.000 NA
ATOM     16  N   UNL     1     -74.512 -54.778 -65.301  0.00  0.00    +0.000 NA
ATOM     17  N   UNL     1     -68.641 -58.973 -72.076  0.00  0.00    +0.000 N 
ATOM     18  N   UNL     1     -69.986 -59.076 -69.281  0.00  0.00    +0.000 N 
ATOM     19  N   UNL     1     -71.796 -59.269 -67.017  0.00  0.00    +0.000 NA
ATOM     20  N   UNL     1     -75.012 -57.344 -66.873  0.00  0.00    +0.000 NA
ATOM     21  N   UNL     1     -73.172 -54.654 -72.840  0.00  0.00    +0.000 NA
ATOM     22  N   UNL     1     -71.159 -57.528 -73.180  0.00  0.00    +0.000 NA
ATOM     23  C   UNL     1     -77.039 -51.650 -68.738  0.00  0.00    +0.000 C 
ATOM     24  C   UNL     1     -74.545 -50.111 -70.192  0.00  0.00    +0.000 C 
ATOM     25  C   UNL     1     -75.212 -52.382 -65.516  0.00  0.00    +0.000 C 
ATOM     26  C   UNL     1     -78.404 -51.842 -68.854  0.00  0.00    +0.000 C 
ATOM     27  C   UNL     1     -73.692 -49.477 -69.160  0.00  0.00    +0.000 C 
ATOM     28  C   UNL     1     -76.585 -52.203 -67.559  0.00  0.00    +0.000 C 
ATOM     29  C   UNL     1     -75.866 -50.140 -70.485  0.00  0.00    +0.000 C 
ATOM     30  C   UNL     1     -73.525 -50.483 -72.935  0.00  0.00    +0.000 C 
ATOM     31  C   UNL     1     -73.108 -50.215 -71.665  0.00  0.00    +0.000 C 
ATOM     32  C   UNL     1     -74.418 -53.449 -64.835  0.00  0.00    +0.000 C 
ATOM     33  C   UNL     1     -78.775 -50.627 -69.508  0.00  0.00    +0.000 C 
ATOM     34  C   UNL     1     -78.821 -52.364 -67.675  0.00  0.00    +0.000 C 
ATOM     35  C   UNL     1     -77.545 -50.063 -69.814  0.00  0.00    +0.000 C 
ATOM     36  C   UNL     1     -73.059 -48.704 -70.551  0.00  0.00    +0.000 C 
ATOM     37  C   UNL     1     -75.465 -55.732 -64.866  0.00  0.00    +0.000 C 
ATOM     38  C   UNL     1     -69.718 -60.134 -70.111  0.00  0.00    +0.000 A 
ATOM     39  C   UNL     1     -74.360 -52.256 -73.032  0.00  0.00    +0.000 C 
ATOM     40  C   UNL     1     -69.101 -58.703 -73.390  0.00  0.00    +0.000 C 
ATOM     41  C   UNL     1     -70.622 -58.603 -66.899  0.00  0.00    +0.000 C 
ATOM     42  C   UNL     1     -72.866 -51.232 -74.622  0.00  0.00    +0.000 C 
ATOM     43  C   UNL     1     -69.974 -61.526 -69.919  0.00  0.00    +0.000 A 
ATOM     44  C   UNL     1     -67.637 -59.239 -74.314  0.00  0.00    +0.000 C 
ATOM     45  C   UNL     1     -74.058 -53.715 -72.969  0.00  0.00    +0.000 C 
ATOM     46  C   UNL     1     -69.767 -59.508 -66.054  0.00  0.00    +0.000 C 
ATOM     47  C   UNL     1     -76.153 -55.348 -63.676  0.00  0.00    +0.000 C 
ATOM     48  C   UNL     1     -69.166 -60.032 -71.384  0.00  0.00    +0.000 A 
ATOM     49  C   UNL     1     -75.715 -56.839 -65.609  0.00  0.00    +0.000 C 
ATOM     50  C   UNL     1     -69.913 -59.123 -67.970  0.00  0.00    +0.000 C 
ATOM     51  C   UNL     1     -70.216 -58.151 -73.975  0.00  0.00    +0.000 C 
ATOM     52  C   UNL     1     -73.693 -57.886 -66.535  0.00  0.00    +0.000 C 
ATOM     53  C   UNL     1     -70.638 -62.218 -68.758  0.00  0.00    +0.000 C 
ATOM     54  C   UNL     1     -69.604 -62.176 -71.068  0.00  0.00    +0.000 A 
ATOM     55  C   UNL     1     -72.507 -58.535 -66.104  0.00  0.00    +0.000 C 
ATOM     56  C   UNL     1     -72.244 -56.966 -73.604  0.00  0.00    +0.000 C 
ATOM     57  C   UNL     1     -75.321 -53.436 -73.417  0.00  0.00    +0.000 C 
ATOM     58  C   UNL     1     -67.652 -59.285 -72.944  0.00  0.00    +0.000 C 
ATOM     59  C   UNL     1     -76.275 -54.460 -62.880  0.00  0.00    +0.000 C 
ATOM     60  C   UNL     1     -73.194 -55.787 -73.528  0.00  0.00    +0.000 C 
ATOM     61  C   UNL     1     -71.571 -60.373 -65.929  0.00  0.00    +0.000 C 
ATOM     62  C   UNL     1     -76.024 -58.084 -66.462  0.00  0.00    +0.000 C 
ATOM     63  C   UNL     1     -73.249 -57.043 -74.510  0.00  0.00    +0.000 C 
ATOM     64  H   UNL     1     -74.444 -54.819 -66.318  0.00  0.00    +0.000 HD
ATOM     65  H   UNL     1     -70.477 -58.289 -69.701  0.00  0.00    +0.000 HD
ATOM     66  H   UNL     1     -72.297 -54.408 -72.384  0.00  0.00    +0.000 HD
ATOM     67  H   UNL     1     -70.753 -57.228 -72.299  0.00  0.00    +0.000 HD
ATOM     68  C   UNL     1     -76.035 -51.824 -64.670  0.00  0.00    +0.000 C 
ATOM     69  C   UNL     1     -76.418 -52.028 -63.315  0.00  0.00    +0.000 C 
ATOM     70  C   UNL     1     -75.657 -53.171 -62.774  0.00  0.00    +0.000 C 
ATOM     71  C   UNL     1     -73.665 -48.098 -68.214  0.00  0.00    +0.000 C 
ATOM     72  C   UNL     1     -73.232 -48.004 -66.957  0.00  0.00    +0.000 C 
ATOM     73  C   UNL     1     -73.084 -47.912 -69.471  0.00  0.00    +0.000 C 
ATOM     74  C   UNL     1     -73.148 -49.889 -74.224  0.00  0.00    +0.000 C 
ATOM     75  C   UNL     1     -73.460 -50.205 -75.539  0.00  0.00    +0.000 C 
ATOM     76  C   UNL     1     -72.705 -49.563 -76.722  0.00  0.00    +0.000 C 
ATOM     77  C   UNL     1     -73.621 -51.564 -75.732  0.00  0.00    +0.000 C 
ATOM     78  C   UNL     1     -69.442 -59.932 -64.546  0.00  0.00    +0.000 C 
ATOM     79  C   UNL     1     -68.366 -60.390 -63.911  0.00  0.00    +0.000 C 
ATOM     80  C   UNL     1     -70.688 -60.459 -64.889  0.00  0.00    +0.000 C 
ATOM     81  C   UNL     1     -67.926 -59.075 -75.607  0.00  0.00    +0.000 C 
ATOM     82  C   UNL     1     -66.951 -59.405 -76.689  0.00  0.00    +0.000 C 
ATOM     83  C   UNL     1     -69.207 -58.542 -75.890  0.00  0.00    +0.000 C 
ENDROOT
BRANCH  69  84
ATOM     84  C   UNL     1     -77.593 -51.535 -62.699  0.00  0.00    +0.000 C 
ATOM     85  C   UNL     1     -78.594 -51.118 -62.183  0.00  0.00    +0.000 C 
BRANCH  85  86
ATOM     86  C   UNL     1     -79.873 -50.586 -61.528  0.00  0.00    +0.000 C 
ATOM     87  C   UNL     1     -80.985 -50.119 -60.963  0.00  0.00    +0.000 C 
ENDBRANCH  85  86
ENDBRANCH  69  84
BRANCH  13  88
ATOM     88  C   UNL     1     -74.182 -52.519 -67.697  0.00  0.00    +0.000 C 
BRANCH  88  89
ATOM     89  O   UNL     1     -73.094 -52.726 -68.427  0.00  0.00    +0.000 OA
ATOM     90  H   UNL     1     -72.455 -52.006 -68.284  0.00  0.00    +0.000 HD
ENDBRANCH  88  89
ENDBRANCH  13  88
TORSDOF 4
ENDMDL
