MODEL 1
REMARK VINA RESULT:      -5.0      0.000      0.000
REMARK  Name = CyclosporineA.pdb
REMARK  40 active torsions:
REMARK  status: ('A' for Active; 'I' for Inactive)
REMARK    1  A    between atoms: C1_1  and  C78_78
REMARK    2  A    between atoms: N7_7  and  C8_8
REMARK    3  A    between atoms: C9_9  and  C15_15
REMARK    4  A    between atoms: N11_11  and  C20_20
REMARK    5  A    between atoms: C12_12  and  C21_21
REMARK    6  A    between atoms: N14_14  and  C23_23
REMARK    7  A    between atoms: C15_15  and  C16_16
REMARK    8  A    between atoms: C16_16  and  C17_17
REMARK    9  A    between atoms: C16_16  and  C18_18
REMARK   10  A    between atoms: C21_21  and  C82_82
REMARK   11  A    between atoms: C24_24  and  C25_25
REMARK   12  A    between atoms: C25_25  and  C30_30
REMARK   13  A    between atoms: C25_25  and  C31_31
REMARK   14  A    between atoms: C26_26  and  O27_27
REMARK   15  A    between atoms: N28_28  and  C29_29
REMARK   16  A    between atoms: C32_32  and  C34_34
REMARK   17  A    between atoms: C34_34  and  C35_35
REMARK   18  A    between atoms: C34_34  and  O40_40
REMARK   19  A    between atoms: C35_35  and  C36_36
REMARK   20  A    between atoms: C35_35  and  C41_41
REMARK   21  A    between atoms: C36_36  and  C37_37
REMARK   22  A    between atoms: C38_38  and  C39_39
REMARK   23  A    between atoms: C44_44  and  C45_45
REMARK   24  A    between atoms: C45_45  and  C46_46
REMARK   25  A    between atoms: N49_49  and  C77_77
REMARK   26  A    between atoms: C53_53  and  C57_57
REMARK   27  A    between atoms: C57_57  and  C58_58
REMARK   28  A    between atoms: C58_58  and  C59_59
REMARK   29  A    between atoms: C58_58  and  C76_76
REMARK   30  A    between atoms: C61_61  and  C62_62
REMARK   31  A    between atoms: C62_62  and  C63_63
REMARK   32  A    between atoms: C62_62  and  C64_64
REMARK   33  A    between atoms: N66_66  and  C68_68
REMARK   34  A    between atoms: C67_67  and  C75_75
REMARK   35  A    between atoms: C73_73  and  C74_74
REMARK   36  A    between atoms: C75_75  and  C79_79
REMARK   37  A    between atoms: C79_79  and  C80_80
REMARK   38  A    between atoms: C79_79  and  C81_81
REMARK   39  A    between atoms: C82_82  and  C83_83
REMARK   40  A    between atoms: C82_82  and  C84_84
REMARK                            x       y       z     vdW  Elec       q    Type
REMARK                         _______ _______ _______ _____ _____    ______ ____
ROOT
ATOM      1  C1  UNK     0     -65.992 -49.410 -13.092  0.00  0.00    +0.000 C 
ATOM      2  C2  UNK     0     -66.588 -48.453 -14.162  0.00  0.00    +0.000 C 
ATOM      3  N3  UNK     0     -64.696 -49.827 -13.603  0.00  0.00    +0.000 N 
ATOM      4  C4  UNK     0     -63.658 -50.231 -12.798  0.00  0.00    +0.000 C 
ATOM      5  O5  UNK     0     -63.708 -50.188 -11.570  0.00  0.00    +0.000 OA
ATOM      6  C6  UNK     0     -67.548 -48.922 -14.984  0.00  0.00    +0.000 C 
ATOM      7  N7  UNK     0     -66.066 -47.123 -14.247  0.00  0.00    +0.000 N 
ATOM      8  C8  UNK     0     -65.072 -46.635 -13.273  0.00  0.00    +0.000 C 
ATOM      9  C9  UNK     0     -66.470 -46.155 -15.331  0.00  0.00    +0.000 C 
ATOM     10  C10 UNK     0     -65.629 -46.384 -16.637  0.00  0.00    +0.000 C 
ATOM     11  N11 UNK     0     -66.257 -46.178 -17.905  0.00  0.00    +0.000 N 
ATOM     12  C12 UNK     0     -65.769 -46.824 -19.168  0.00  0.00    +0.000 C 
ATOM     13  C13 UNK     0     -65.116 -45.773 -20.125  0.00  0.00    +0.000 C 
ATOM     14  N14 UNK     0     -65.122 -46.061 -21.516  0.00  0.00    +0.000 N 
ATOM     15  C19 UNK     0     -64.344 -46.785 -16.541  0.00  0.00    +0.000 C 
ATOM     16  C20 UNK     0     -67.494 -45.397 -18.047  0.00  0.00    +0.000 C 
ATOM     17  C22 UNK     0     -64.619 -44.606 -19.670  0.00  0.00    +0.000 C 
ATOM     18  C23 UNK     0     -66.100 -45.216 -22.268  0.00  0.00    +0.000 C 
ATOM     19  C24 UNK     0     -63.798 -46.232 -22.273  0.00  0.00    +0.000 C 
ATOM     20  C26 UNK     0     -64.103 -46.749 -23.760  0.00  0.00    +0.000 C 
ATOM     21  N28 UNK     0     -62.907 -47.127 -24.517  0.00  0.00    +0.000 NA
ATOM     22  C29 UNK     0     -62.283 -45.950 -25.131  0.00  0.00    +0.000 C 
ATOM     23  C32 UNK     0     -63.085 -48.253 -25.491  0.00  0.00    +0.000 C 
ATOM     24  C33 UNK     0     -61.657 -48.795 -25.772  0.00  0.00    +0.000 C 
ATOM     25  O42 UNK     0     -61.101 -48.747 -26.863  0.00  0.00    +0.000 OA
ATOM     26  N43 UNK     0     -61.071 -49.298 -24.625  0.00  0.00    +0.000 N 
ATOM     27  C44 UNK     0     -59.741 -49.872 -24.594  0.00  0.00    +0.000 C 
ATOM     28  C47 UNK     0     -59.799 -51.311 -25.166  0.00  0.00    +0.000 C 
ATOM     29  C48 UNK     0     -59.023 -51.538 -26.246  0.00  0.00    +0.000 C 
ATOM     30  N49 UNK     0     -60.618 -52.328 -24.607  0.00  0.00    +0.000 N 
ATOM     31  C50 UNK     0     -61.578 -52.154 -23.481  0.00  0.00    +0.000 C 
ATOM     32  C51 UNK     0     -61.219 -53.057 -22.286  0.00  0.00    +0.000 C 
ATOM     33  N52 UNK     0     -59.878 -53.362 -22.205  0.00  0.00    +0.000 N 
ATOM     34  C53 UNK     0     -59.297 -53.972 -21.017  0.00  0.00    +0.000 C 
ATOM     35  C54 UNK     0     -59.139 -52.872 -19.934  0.00  0.00    +0.000 C 
ATOM     36  N55 UNK     0     -59.024 -53.368 -18.649  0.00  0.00    +0.000 N 
ATOM     37  O56 UNK     0     -62.044 -53.432 -21.456  0.00  0.00    +0.000 OA
ATOM     38  O60 UNK     0     -59.070 -51.678 -20.209  0.00  0.00    +0.000 OA
ATOM     39  C61 UNK     0     -59.003 -52.526 -17.444  0.00  0.00    +0.000 C 
ATOM     40  C65 UNK     0     -60.473 -52.115 -17.133  0.00  0.00    +0.000 C 
ATOM     41  N66 UNK     0     -61.391 -53.142 -16.836  0.00  0.00    +0.000 N 
ATOM     42  C67 UNK     0     -62.809 -52.723 -16.633  0.00  0.00    +0.000 C 
ATOM     43  C68 UNK     0     -60.970 -54.380 -16.178  0.00  0.00    +0.000 C 
ATOM     44  O69 UNK     0     -60.834 -50.933 -17.122  0.00  0.00    +0.000 OA
ATOM     45  C70 UNK     0     -62.950 -52.286 -15.155  0.00  0.00    +0.000 C 
ATOM     46  N71 UNK     0     -62.567 -50.977 -14.924  0.00  0.00    +0.000 N 
ATOM     47  O72 UNK     0     -63.264 -53.058 -14.253  0.00  0.00    +0.000 OA
ATOM     48  C73 UNK     0     -62.341 -50.509 -13.554  0.00  0.00    +0.000 C 
ATOM     49  C74 UNK     0     -61.523 -49.221 -13.576  0.00  0.00    +0.000 C 
ATOM     50  C77 UNK     0     -60.804 -53.618 -25.300  0.00  0.00    +0.000 C 
ATOM     51  C78 UNK     0     -66.827 -50.639 -12.707  0.00  0.00    +0.000 C 
ATOM     52  H2  UNK     0     -64.568 -49.868 -14.607  0.00  0.00    +0.000 HD
ATOM     53  H58 UNK     0     -61.509 -49.030 -23.754  0.00  0.00    +0.000 HD
ATOM     54  H69 UNK     0     -59.288 -52.806 -22.819  0.00  0.00    +0.000 HD
ATOM     55  H71 UNK     0     -59.357 -54.313 -18.520  0.00  0.00    +0.000 HD
ATOM     56  H90 UNK     0     -62.000 -50.561 -15.666  0.00  0.00    +0.000 HD
ENDROOT
BRANCH  39  57
ATOM     57  C62 UNK     0     -58.008 -51.336 -17.474  0.00  0.00    +0.000 C 
ATOM     58  C63 UNK     0     -57.942 -50.644 -16.102  0.00  0.00    +0.000 C 
ATOM     59  C64 UNK     0     -56.589 -51.787 -17.848  0.00  0.00    +0.000 C 
ENDBRANCH  39  57
BRANCH  19  60
ATOM     60  C25 UNK     0     -62.755 -47.182 -21.575  0.00  0.00    +0.000 C 
ATOM     61  C30 UNK     0     -61.886 -46.509 -20.508  0.00  0.00    +0.000 C 
ATOM     62  C31 UNK     0     -63.308 -48.512 -21.057  0.00  0.00    +0.000 C 
ENDBRANCH  19  60
BRANCH  20  63
ATOM     63  O27 UNK     0     -65.046 -47.826 -23.697  0.00  0.00    +0.000 OA
ATOM     64  H34 UNK     0     -65.773 -47.543 -24.291  0.00  0.00    +0.000 HD
ENDBRANCH  20  63
BRANCH  27  65
ATOM     65  C45 UNK     0     -59.114 -49.761 -23.194  0.00  0.00    +0.000 C 
ATOM     66  C46 UNK     0     -59.348 -48.408 -22.534  0.00  0.00    +0.000 C 
ENDBRANCH  27  65
BRANCH  23  67
ATOM     67  C34 UNK     0     -63.877 -47.966 -26.804  0.00  0.00    +0.000 C 
BRANCH  67  68
ATOM     68  C35 UNK     0     -64.641 -49.191 -27.397  0.00  0.00    +0.000 C 
ATOM     69  C41 UNK     0     -63.809 -50.064 -28.341  0.00  0.00    +0.000 C 
BRANCH  68  70
ATOM     70  C36 UNK     0     -65.930 -48.697 -28.109  0.00  0.00    +0.000 C 
BRANCH  70  71
ATOM     71  C37 UNK     0     -65.986 -49.053 -29.572  0.00  0.00    +0.000 C 
ATOM     72  C38 UNK     0     -67.121 -49.326 -30.232  0.00  0.00    +0.000 C 
ATOM     73  C39 UNK     0     -67.180 -49.689 -31.679  0.00  0.00    +0.000 C 
ENDBRANCH  70  71
ENDBRANCH  68  70
ENDBRANCH  67  68
BRANCH  67  74
ATOM     74  O40 UNK     0     -64.881 -46.957 -26.555  0.00  0.00    +0.000 OA
ATOM     75  H54 UNK     0     -65.725 -47.445 -26.468  0.00  0.00    +0.000 HD
ENDBRANCH  67  74
ENDBRANCH  23  67
BRANCH  34  76
ATOM     76  C57 UNK     0     -57.943 -54.599 -21.388  0.00  0.00    +0.000 C 
BRANCH  76  77
ATOM     77  C58 UNK     0     -57.277 -54.086 -22.680  0.00  0.00    +0.000 C 
ATOM     78  C59 UNK     0     -56.265 -52.970 -22.415  0.00  0.00    +0.000 C 
ATOM     79  C76 UNK     0     -56.580 -55.250 -23.394  0.00  0.00    +0.000 C 
ENDBRANCH  76  77
ENDBRANCH  34  76
BRANCH  12  80
ATOM     80  C21 UNK     0     -66.893 -47.654 -19.854  0.00  0.00    +0.000 C 
BRANCH  80  81
ATOM     81  C82 UNK     0     -66.671 -49.180 -19.885  0.00  0.00    +0.000 C 
ATOM     82  C83 UNK     0     -67.972 -49.956 -20.072  0.00  0.00    +0.000 C 
ATOM     83  C84 UNK     0     -65.990 -49.627 -18.588  0.00  0.00    +0.000 C 
ENDBRANCH  80  81
ENDBRANCH  12  80
BRANCH  42  84
ATOM     84  C75 UNK     0     -63.805 -53.835 -17.025  0.00  0.00    +0.000 C 
BRANCH  84  85
ATOM     85  C79 UNK     0     -65.290 -53.425 -16.942  0.00  0.00    +0.000 C 
ATOM     86  C80 UNK     0     -66.113 -54.335 -16.031  0.00  0.00    +0.000 C 
ATOM     87  C81 UNK     0     -65.901 -53.423 -18.347  0.00  0.00    +0.000 C 
ENDBRANCH  84  85
ENDBRANCH  42  84
BRANCH   9  88
ATOM     88  C15 UNK     0     -66.490 -44.662 -14.891  0.00  0.00    +0.000 C 
BRANCH  88  89
ATOM     89  C16 UNK     0     -67.895 -44.147 -14.495  0.00  0.00    +0.000 C 
ATOM     90  C17 UNK     0     -68.252 -44.440 -13.040  0.00  0.00    +0.000 C 
ATOM     91  C18 UNK     0     -67.986 -42.640 -14.753  0.00  0.00    +0.000 C 
ENDBRANCH  88  89
ENDBRANCH   9  88
TORSDOF 17
ENDMDL
MODEL 2
REMARK VINA RESULT:      -5.0     46.074     52.543
REMARK  Name = CyclosporineA.pdb
REMARK  40 active torsions:
REMARK  status: ('A' for Active; 'I' for Inactive)
REMARK    1  A    between atoms: C1_1  and  C78_78
REMARK    2  A    between atoms: N7_7  and  C8_8
REMARK    3  A    between atoms: C9_9  and  C15_15
REMARK    4  A    between atoms: N11_11  and  C20_20
REMARK    5  A    between atoms: C12_12  and  C21_21
REMARK    6  A    between atoms: N14_14  and  C23_23
REMARK    7  A    between atoms: C15_15  and  C16_16
REMARK    8  A    between atoms: C16_16  and  C17_17
REMARK    9  A    between atoms: C16_16  and  C18_18
REMARK   10  A    between atoms: C21_21  and  C82_82
REMARK   11  A    between atoms: C24_24  and  C25_25
REMARK   12  A    between atoms: C25_25  and  C30_30
REMARK   13  A    between atoms: C25_25  and  C31_31
REMARK   14  A    between atoms: C26_26  and  O27_27
REMARK   15  A    between atoms: N28_28  and  C29_29
REMARK   16  A    between atoms: C32_32  and  C34_34
REMARK   17  A    between atoms: C34_34  and  C35_35
REMARK   18  A    between atoms: C34_34  and  O40_40
REMARK   19  A    between atoms: C35_35  and  C36_36
REMARK   20  A    between atoms: C35_35  and  C41_41
REMARK   21  A    between atoms: C36_36  and  C37_37
REMARK   22  A    between atoms: C38_38  and  C39_39
REMARK   23  A    between atoms: C44_44  and  C45_45
REMARK   24  A    between atoms: C45_45  and  C46_46
REMARK   25  A    between atoms: N49_49  and  C77_77
REMARK   26  A    between atoms: C53_53  and  C57_57
REMARK   27  A    between atoms: C57_57  and  C58_58
REMARK   28  A    between atoms: C58_58  and  C59_59
REMARK   29  A    between atoms: C58_58  and  C76_76
REMARK   30  A    between atoms: C61_61  and  C62_62
REMARK   31  A    between atoms: C62_62  and  C63_63
REMARK   32  A    between atoms: C62_62  and  C64_64
REMARK   33  A    between atoms: N66_66  and  C68_68
REMARK   34  A    between atoms: C67_67  and  C75_75
REMARK   35  A    between atoms: C73_73  and  C74_74
REMARK   36  A    between atoms: C75_75  and  C79_79
REMARK   37  A    between atoms: C79_79  and  C80_80
REMARK   38  A    between atoms: C79_79  and  C81_81
REMARK   39  A    between atoms: C82_82  and  C83_83
REMARK   40  A    between atoms: C82_82  and  C84_84
REMARK                            x       y       z     vdW  Elec       q    Type
REMARK                         _______ _______ _______ _____ _____    ______ ____
ROOT
ATOM      1  C1  UNK     0     -50.495 -53.080 -65.045  0.00  0.00    +0.000 C 
ATOM      2  C2  UNK     0     -49.516 -53.016 -66.251  0.00  0.00    +0.000 C 
ATOM      3  N3  UNK     0     -50.823 -54.486 -64.868  0.00  0.00    +0.000 N 
ATOM      4  C4  UNK     0     -51.215 -55.028 -63.667  0.00  0.00    +0.000 C 
ATOM      5  O5  UNK     0     -51.234 -54.386 -62.619  0.00  0.00    +0.000 OA
ATOM      6  C6  UNK     0     -49.991 -52.608 -67.445  0.00  0.00    +0.000 C 
ATOM      7  N7  UNK     0     -48.161 -53.424 -66.046  0.00  0.00    +0.000 N 
ATOM      8  C8  UNK     0     -47.673 -53.787 -64.702  0.00  0.00    +0.000 C 
ATOM      9  C9  UNK     0     -47.161 -53.533 -67.171  0.00  0.00    +0.000 C 
ATOM     10  C10 UNK     0     -47.285 -54.915 -67.906  0.00  0.00    +0.000 C 
ATOM     11  N11 UNK     0     -47.048 -54.968 -69.315  0.00  0.00    +0.000 N 
ATOM     12  C12 UNK     0     -47.608 -56.048 -70.193  0.00  0.00    +0.000 C 
ATOM     13  C13 UNK     0     -46.481 -57.013 -70.691  0.00  0.00    +0.000 C 
ATOM     14  N14 UNK     0     -46.700 -57.701 -71.915  0.00  0.00    +0.000 N 
ATOM     15  C19 UNK     0     -47.627 -56.016 -67.205  0.00  0.00    +0.000 C 
ATOM     16  C20 UNK     0     -46.322 -53.907 -70.027  0.00  0.00    +0.000 C 
ATOM     17  C22 UNK     0     -45.315 -57.149 -70.029  0.00  0.00    +0.000 C 
ATOM     18  C23 UNK     0     -45.869 -57.157 -73.031  0.00  0.00    +0.000 C 
ATOM     19  C24 UNK     0     -46.770 -59.234 -71.934  0.00  0.00    +0.000 C 
ATOM     20  C26 UNK     0     -47.228 -59.723 -73.391  0.00  0.00    +0.000 C 
ATOM     21  N28 UNK     0     -47.510 -61.158 -73.477  0.00  0.00    +0.000 NA
ATOM     22  C29 UNK     0     -46.276 -61.922 -73.687  0.00  0.00    +0.000 C 
ATOM     23  C32 UNK     0     -48.595 -61.549 -74.435  0.00  0.00    +0.000 C 
ATOM     24  C33 UNK     0     -49.052 -62.967 -73.996  0.00  0.00    +0.000 C 
ATOM     25  O42 UNK     0     -48.925 -63.978 -74.678  0.00  0.00    +0.000 OA
ATOM     26  N43 UNK     0     -49.582 -62.955 -72.719  0.00  0.00    +0.000 N 
ATOM     27  C44 UNK     0     -50.092 -64.138 -72.056  0.00  0.00    +0.000 C 
ATOM     28  C47 UNK     0     -51.502 -64.460 -72.610  0.00  0.00    +0.000 C 
ATOM     29  C48 UNK     0     -51.638 -65.675 -73.180  0.00  0.00    +0.000 C 
ATOM     30  N49 UNK     0     -52.583 -63.542 -72.541  0.00  0.00    +0.000 N 
ATOM     31  C50 UNK     0     -52.512 -62.147 -72.021  0.00  0.00    +0.000 C 
ATOM     32  C51 UNK     0     -53.454 -61.940 -70.820  0.00  0.00    +0.000 C 
ATOM     33  N52 UNK     0     -53.697 -63.091 -70.102  0.00  0.00    +0.000 N 
ATOM     34  C53 UNK     0     -54.335 -63.062 -68.793  0.00  0.00    +0.000 C 
ATOM     35  C54 UNK     0     -53.283 -62.602 -67.750  0.00  0.00    +0.000 C 
ATOM     36  N55 UNK     0     -53.834 -62.113 -66.581  0.00  0.00    +0.000 N 
ATOM     37  O56 UNK     0     -53.908 -60.844 -70.504  0.00  0.00    +0.000 OA
ATOM     38  O60 UNK     0     -52.075 -62.717 -67.933  0.00  0.00    +0.000 OA
ATOM     39  C61 UNK     0     -53.052 -61.490 -65.502  0.00  0.00    +0.000 C 
ATOM     40  C65 UNK     0     -52.729 -60.031 -65.939  0.00  0.00    +0.000 C 
ATOM     41  N66 UNK     0     -53.813 -59.154 -66.146  0.00  0.00    +0.000 N 
ATOM     42  C67 UNK     0     -53.472 -57.791 -66.651  0.00  0.00    +0.000 C 
ATOM     43  C68 UNK     0     -55.059 -59.284 -65.390  0.00  0.00    +0.000 C 
ATOM     44  O69 UNK     0     -51.568 -59.633 -66.082  0.00  0.00    +0.000 OA
ATOM     45  C70 UNK     0     -53.116 -56.923 -65.421  0.00  0.00    +0.000 C 
ATOM     46  N71 UNK     0     -51.803 -57.059 -65.007  0.00  0.00    +0.000 N 
ATOM     47  O72 UNK     0     -53.945 -56.263 -64.800  0.00  0.00    +0.000 OA
ATOM     48  C73 UNK     0     -51.391 -56.561 -63.692  0.00  0.00    +0.000 C 
ATOM     49  C74 UNK     0     -50.066 -57.200 -63.288  0.00  0.00    +0.000 C 
ATOM     50  C77 UNK     0     -53.846 -63.800 -73.260  0.00  0.00    +0.000 C 
ATOM     51  C78 UNK     0     -51.779 -52.247 -65.138  0.00  0.00    +0.000 C 
ATOM     52  H2  UNK     0     -50.809 -55.087 -65.683  0.00  0.00    +0.000 HD
ATOM     53  H58 UNK     0     -49.378 -62.133 -72.166  0.00  0.00    +0.000 HD
ATOM     54  H69 UNK     0     -53.084 -63.867 -70.341  0.00  0.00    +0.000 HD
ATOM     55  H71 UNK     0     -54.799 -61.822 -66.649  0.00  0.00    +0.000 HD
ATOM     56  H90 UNK     0     -51.324 -57.886 -65.371  0.00  0.00    +0.000 HD
ENDROOT
BRANCH  39  57
ATOM     57  C62 UNK     0     -51.815 -62.295 -65.021  0.00  0.00    +0.000 C 
ATOM     58  C63 UNK     0     -51.181 -61.634 -63.786  0.00  0.00    +0.000 C 
ATOM     59  C64 UNK     0     -52.181 -63.740 -64.653  0.00  0.00    +0.000 C 
ENDBRANCH  39  57
BRANCH  19  60
ATOM     60  C25 UNK     0     -47.701 -59.869 -70.835  0.00  0.00    +0.000 C 
ATOM     61  C30 UNK     0     -47.015 -60.148 -69.495  0.00  0.00    +0.000 C 
ATOM     62  C31 UNK     0     -49.044 -59.168 -70.615  0.00  0.00    +0.000 C 
ENDBRANCH  19  60
BRANCH  20  63
ATOM     63  O27 UNK     0     -48.352 -58.941 -73.816  0.00  0.00    +0.000 OA
ATOM     64  H34 UNK     0     -49.085 -59.590 -73.876  0.00  0.00    +0.000 HD
ENDBRANCH  20  63
BRANCH  27  65
ATOM     65  C45 UNK     0     -50.018 -63.999 -70.525  0.00  0.00    +0.000 C 
ATOM     66  C46 UNK     0     -50.590 -65.199 -69.782  0.00  0.00    +0.000 C 
ENDBRANCH  27  65
BRANCH  23  67
ATOM     67  C34 UNK     0     -48.283 -61.476 -75.962  0.00  0.00    +0.000 C 
BRANCH  67  68
ATOM     68  C35 UNK     0     -49.451 -61.917 -76.898  0.00  0.00    +0.000 C 
ATOM     69  C41 UNK     0     -49.064 -62.070 -78.372  0.00  0.00    +0.000 C 
BRANCH  68  70
ATOM     70  C36 UNK     0     -50.634 -60.922 -76.748  0.00  0.00    +0.000 C 
BRANCH  70  71
ATOM     71  C37 UNK     0     -50.983 -60.202 -78.025  0.00  0.00    +0.000 C 
ATOM     72  C38 UNK     0     -50.741 -58.901 -78.241  0.00  0.00    +0.000 C 
ATOM     73  C39 UNK     0     -51.094 -58.182 -79.501  0.00  0.00    +0.000 C 
ENDBRANCH  70  71
ENDBRANCH  68  70
ENDBRANCH  67  68
BRANCH  67  74
ATOM     74  O40 UNK     0     -47.975 -60.113 -76.331  0.00  0.00    +0.000 OA
ATOM     75  H54 UNK     0     -48.463 -59.951 -77.164  0.00  0.00    +0.000 HD
ENDBRANCH  67  74
ENDBRANCH  23  67
BRANCH  34  76
ATOM     76  C57 UNK     0     -54.877 -64.464 -68.470  0.00  0.00    +0.000 C 
BRANCH  76  77
ATOM     77  C58 UNK     0     -54.983 -65.450 -69.650  0.00  0.00    +0.000 C 
ATOM     78  C59 UNK     0     -54.079 -66.672 -69.478  0.00  0.00    +0.000 C 
ATOM     79  C76 UNK     0     -56.438 -65.908 -69.805  0.00  0.00    +0.000 C 
ENDBRANCH  76  77
ENDBRANCH  34  76
BRANCH  12  80
ATOM     80  C21 UNK     0     -48.457 -55.456 -71.355  0.00  0.00    +0.000 C 
BRANCH  80  81
ATOM     81  C82 UNK     0     -49.977 -55.696 -71.260  0.00  0.00    +0.000 C 
ATOM     82  C83 UNK     0     -50.589 -56.103 -72.599  0.00  0.00    +0.000 C 
ATOM     83  C84 UNK     0     -50.667 -54.429 -70.745  0.00  0.00    +0.000 C 
ENDBRANCH  80  81
ENDBRANCH  12  80
BRANCH  42  84
ATOM     84  C75 UNK     0     -54.611 -57.186 -67.498  0.00  0.00    +0.000 C 
BRANCH  84  85
ATOM     85  C79 UNK     0     -54.229 -56.882 -68.962  0.00  0.00    +0.000 C 
ATOM     86  C80 UNK     0     -55.139 -57.576 -69.975  0.00  0.00    +0.000 C 
ATOM     87  C81 UNK     0     -52.777 -57.301 -69.212  0.00  0.00    +0.000 C 
ENDBRANCH  84  85
ENDBRANCH  42  84
BRANCH   9  88
ATOM     88  C15 UNK     0     -45.694 -53.204 -66.768  0.00  0.00    +0.000 C 
BRANCH  88  89
ATOM     89  C16 UNK     0     -45.363 -51.693 -66.800  0.00  0.00    +0.000 C 
ATOM     90  C17 UNK     0     -43.912 -51.405 -67.180  0.00  0.00    +0.000 C 
ATOM     91  C18 UNK     0     -46.302 -50.978 -67.776  0.00  0.00    +0.000 C 
ENDBRANCH  88  89
ENDBRANCH   9  88
TORSDOF 17
ENDMDL
MODEL 3
REMARK VINA RESULT:      -5.0     13.848     21.807
REMARK  Name = CyclosporineA.pdb
REMARK  40 active torsions:
REMARK  status: ('A' for Active; 'I' for Inactive)
REMARK    1  A    between atoms: C1_1  and  C78_78
REMARK    2  A    between atoms: N7_7  and  C8_8
REMARK    3  A    between atoms: C9_9  and  C15_15
REMARK    4  A    between atoms: N11_11  and  C20_20
REMARK    5  A    between atoms: C12_12  and  C21_21
REMARK    6  A    between atoms: N14_14  and  C23_23
REMARK    7  A    between atoms: C15_15  and  C16_16
REMARK    8  A    between atoms: C16_16  and  C17_17
REMARK    9  A    between atoms: C16_16  and  C18_18
REMARK   10  A    between atoms: C21_21  and  C82_82
REMARK   11  A    between atoms: C24_24  and  C25_25
REMARK   12  A    between atoms: C25_25  and  C30_30
REMARK   13  A    between atoms: C25_25  and  C31_31
REMARK   14  A    between atoms: C26_26  and  O27_27
REMARK   15  A    between atoms: N28_28  and  C29_29
REMARK   16  A    between atoms: C32_32  and  C34_34
REMARK   17  A    between atoms: C34_34  and  C35_35
REMARK   18  A    between atoms: C34_34  and  O40_40
REMARK   19  A    between atoms: C35_35  and  C36_36
REMARK   20  A    between atoms: C35_35  and  C41_41
REMARK   21  A    between atoms: C36_36  and  C37_37
REMARK   22  A    between atoms: C38_38  and  C39_39
REMARK   23  A    between atoms: C44_44  and  C45_45
REMARK   24  A    between atoms: C45_45  and  C46_46
REMARK   25  A    between atoms: N49_49  and  C77_77
REMARK   26  A    between atoms: C53_53  and  C57_57
REMARK   27  A    between atoms: C57_57  and  C58_58
REMARK   28  A    between atoms: C58_58  and  C59_59
REMARK   29  A    between atoms: C58_58  and  C76_76
REMARK   30  A    between atoms: C61_61  and  C62_62
REMARK   31  A    between atoms: C62_62  and  C63_63
REMARK   32  A    between atoms: C62_62  and  C64_64
REMARK   33  A    between atoms: N66_66  and  C68_68
REMARK   34  A    between atoms: C67_67  and  C75_75
REMARK   35  A    between atoms: C73_73  and  C74_74
REMARK   36  A    between atoms: C75_75  and  C79_79
REMARK   37  A    between atoms: C79_79  and  C80_80
REMARK   38  A    between atoms: C79_79  and  C81_81
REMARK   39  A    between atoms: C82_82  and  C83_83
REMARK   40  A    between atoms: C82_82  and  C84_84
REMARK                            x       y       z     vdW  Elec       q    Type
REMARK                         _______ _______ _______ _____ _____    ______ ____
ROOT
ATOM      1  C1  UNK     0     -68.472 -60.529 -41.755  0.00  0.00    +0.000 C 
ATOM      2  C2  UNK     0     -68.701 -59.035 -42.116  0.00  0.00    +0.000 C 
ATOM      3  N3  UNK     0     -69.237 -60.772 -40.542  0.00  0.00    +0.000 N 
ATOM      4  C4  UNK     0     -69.719 -62.008 -40.185  0.00  0.00    +0.000 C 
ATOM      5  O5  UNK     0     -69.621 -62.998 -40.907  0.00  0.00    +0.000 OA
ATOM      6  C6  UNK     0     -67.723 -58.148 -41.840  0.00  0.00    +0.000 C 
ATOM      7  N7  UNK     0     -69.954 -58.662 -42.695  0.00  0.00    +0.000 N 
ATOM      8  C8  UNK     0     -70.960 -59.681 -43.049  0.00  0.00    +0.000 C 
ATOM      9  C9  UNK     0     -70.338 -57.226 -42.958  0.00  0.00    +0.000 C 
ATOM     10  C10 UNK     0     -70.930 -56.553 -41.669  0.00  0.00    +0.000 C 
ATOM     11  N11 UNK     0     -70.669 -55.167 -41.435  0.00  0.00    +0.000 N 
ATOM     12  C12 UNK     0     -70.721 -54.550 -40.069  0.00  0.00    +0.000 C 
ATOM     13  C13 UNK     0     -71.960 -53.606 -39.921  0.00  0.00    +0.000 C 
ATOM     14  N14 UNK     0     -71.870 -52.550 -38.975  0.00  0.00    +0.000 N 
ATOM     15  C19 UNK     0     -71.654 -57.293 -40.802  0.00  0.00    +0.000 C 
ATOM     16  C20 UNK     0     -70.228 -54.262 -42.506  0.00  0.00    +0.000 C 
ATOM     17  C22 UNK     0     -73.053 -53.737 -40.698  0.00  0.00    +0.000 C 
ATOM     18  C23 UNK     0     -71.711 -51.214 -39.626  0.00  0.00    +0.000 C 
ATOM     19  C24 UNK     0     -72.830 -52.504 -37.778  0.00  0.00    +0.000 C 
ATOM     20  C26 UNK     0     -72.372 -51.338 -36.777  0.00  0.00    +0.000 C 
ATOM     21  N28 UNK     0     -73.102 -51.321 -35.508  0.00  0.00    +0.000 NA
ATOM     22  C29 UNK     0     -74.375 -50.604 -35.645  0.00  0.00    +0.000 C 
ATOM     23  C32 UNK     0     -72.316 -50.867 -34.314  0.00  0.00    +0.000 C 
ATOM     24  C33 UNK     0     -73.087 -51.401 -33.076  0.00  0.00    +0.000 C 
ATOM     25  O42 UNK     0     -73.621 -50.689 -32.233  0.00  0.00    +0.000 OA
ATOM     26  N43 UNK     0     -73.135 -52.783 -33.066  0.00  0.00    +0.000 N 
ATOM     27  C44 UNK     0     -73.787 -53.551 -32.026  0.00  0.00    +0.000 C 
ATOM     28  C47 UNK     0     -72.866 -53.600 -30.782  0.00  0.00    +0.000 C 
ATOM     29  C48 UNK     0     -73.393 -53.089 -29.649  0.00  0.00    +0.000 C 
ATOM     30  N49 UNK     0     -71.550 -54.132 -30.819  0.00  0.00    +0.000 N 
ATOM     31  C50 UNK     0     -70.845 -54.629 -32.033  0.00  0.00    +0.000 C 
ATOM     32  C51 UNK     0     -70.459 -56.114 -31.897  0.00  0.00    +0.000 C 
ATOM     33  N52 UNK     0     -71.289 -56.828 -31.059  0.00  0.00    +0.000 N 
ATOM     34  C53 UNK     0     -71.262 -58.282 -31.003  0.00  0.00    +0.000 C 
ATOM     35  C54 UNK     0     -72.007 -58.830 -32.248  0.00  0.00    +0.000 C 
ATOM     36  N55 UNK     0     -71.689 -60.139 -32.557  0.00  0.00    +0.000 N 
ATOM     37  O56 UNK     0     -69.529 -56.626 -32.515  0.00  0.00    +0.000 OA
ATOM     38  O60 UNK     0     -72.841 -58.172 -32.863  0.00  0.00    +0.000 OA
ATOM     39  C61 UNK     0     -72.156 -60.834 -33.767  0.00  0.00    +0.000 C 
ATOM     40  C65 UNK     0     -71.268 -60.357 -34.954  0.00  0.00    +0.000 C 
ATOM     41  N66 UNK     0     -69.888 -60.636 -34.892  0.00  0.00    +0.000 N 
ATOM     42  C67 UNK     0     -69.053 -60.086 -36.001  0.00  0.00    +0.000 C 
ATOM     43  C68 UNK     0     -69.376 -61.824 -34.209  0.00  0.00    +0.000 C 
ATOM     44  O69 UNK     0     -71.744 -59.774 -35.934  0.00  0.00    +0.000 OA
ATOM     45  C70 UNK     0     -69.118 -61.100 -37.169  0.00  0.00    +0.000 C 
ATOM     46  N71 UNK     0     -70.231 -60.945 -37.977  0.00  0.00    +0.000 N 
ATOM     47  O72 UNK     0     -68.322 -62.025 -37.302  0.00  0.00    +0.000 OA
ATOM     48  C73 UNK     0     -70.606 -62.000 -38.921  0.00  0.00    +0.000 C 
ATOM     49  C74 UNK     0     -72.055 -61.813 -39.357  0.00  0.00    +0.000 C 
ATOM     50  C77 UNK     0     -70.634 -53.973 -29.672  0.00  0.00    +0.000 C 
ATOM     51  C78 UNK     0     -67.021 -60.991 -41.564  0.00  0.00    +0.000 C 
ATOM     52  H2  UNK     0     -69.380 -59.999 -39.904  0.00  0.00    +0.000 HD
ATOM     53  H58 UNK     0     -72.908 -53.236 -33.941  0.00  0.00    +0.000 HD
ATOM     54  H69 UNK     0     -72.139 -56.334 -30.798  0.00  0.00    +0.000 HD
ATOM     55  H71 UNK     0     -70.822 -60.476 -32.164  0.00  0.00    +0.000 HD
ATOM     56  H90 UNK     0     -70.983 -60.389 -37.565  0.00  0.00    +0.000 HD
ENDROOT
BRANCH  39  57
ATOM     57  C62 UNK     0     -73.681 -60.747 -34.043  0.00  0.00    +0.000 C 
ATOM     58  C63 UNK     0     -74.073 -61.647 -35.226  0.00  0.00    +0.000 C 
ATOM     59  C64 UNK     0     -74.508 -61.176 -32.823  0.00  0.00    +0.000 C 
ENDBRANCH  39  57
BRANCH  19  60
ATOM     60  C25 UNK     0     -72.976 -53.862 -36.994  0.00  0.00    +0.000 C 
ATOM     61  C30 UNK     0     -74.088 -54.782 -37.504  0.00  0.00    +0.000 C 
ATOM     62  C31 UNK     0     -71.681 -54.650 -36.782  0.00  0.00    +0.000 C 
ENDBRANCH  19  60
BRANCH  20  63
ATOM     63  O27 UNK     0     -70.957 -51.430 -36.567  0.00  0.00    +0.000 OA
ATOM     64  H34 UNK     0     -70.666 -52.120 -37.200  0.00  0.00    +0.000 HD
ENDBRANCH  20  63
BRANCH  27  65
ATOM     65  C45 UNK     0     -74.241 -54.927 -32.545  0.00  0.00    +0.000 C 
ATOM     66  C46 UNK     0     -74.912 -55.783 -31.479  0.00  0.00    +0.000 C 
ENDBRANCH  27  65
BRANCH  23  67
ATOM     67  C34 UNK     0     -71.985 -49.347 -34.192  0.00  0.00    +0.000 C 
BRANCH  67  68
ATOM     68  C35 UNK     0     -70.941 -48.983 -33.091  0.00  0.00    +0.000 C 
ATOM     69  C41 UNK     0     -71.225 -47.673 -32.352  0.00  0.00    +0.000 C 
BRANCH  68  70
ATOM     70  C36 UNK     0     -69.521 -48.956 -33.718  0.00  0.00    +0.000 C 
BRANCH  70  71
ATOM     71  C37 UNK     0     -68.426 -48.672 -32.723  0.00  0.00    +0.000 C 
ATOM     72  C38 UNK     0     -67.714 -49.623 -32.101  0.00  0.00    +0.000 C 
ATOM     73  C39 UNK     0     -66.635 -49.345 -31.107  0.00  0.00    +0.000 C 
ENDBRANCH  70  71
ENDBRANCH  68  70
ENDBRANCH  67  68
BRANCH  67  74
ATOM     74  O40 UNK     0     -71.427 -48.870 -35.438  0.00  0.00    +0.000 OA
ATOM     75  H54 UNK     0     -72.155 -48.929 -36.089  0.00  0.00    +0.000 HD
ENDBRANCH  67  74
ENDBRANCH  23  67
BRANCH  34  76
ATOM     76  C57 UNK     0     -71.927 -58.745 -29.696  0.00  0.00    +0.000 C 
BRANCH  76  77
ATOM     77  C58 UNK     0     -72.504 -57.641 -28.789  0.00  0.00    +0.000 C 
ATOM     78  C59 UNK     0     -73.985 -57.858 -28.470  0.00  0.00    +0.000 C 
ATOM     79  C76 UNK     0     -71.703 -57.580 -27.483  0.00  0.00    +0.000 C 
ENDBRANCH  76  77
ENDBRANCH  34  76
BRANCH  12  80
ATOM     80  C21 UNK     0     -69.378 -53.850 -39.708  0.00  0.00    +0.000 C 
BRANCH  80  81
ATOM     81  C82 UNK     0     -68.107 -54.698 -39.917  0.00  0.00    +0.000 C 
ATOM     82  C83 UNK     0     -67.598 -55.318 -38.618  0.00  0.00    +0.000 C 
ATOM     83  C84 UNK     0     -67.006 -53.831 -40.537  0.00  0.00    +0.000 C 
ENDBRANCH  80  81
ENDBRANCH  12  80
BRANCH  42  84
ATOM     84  C75 UNK     0     -67.608 -59.792 -35.547  0.00  0.00    +0.000 C 
BRANCH  84  85
ATOM     85  C79 UNK     0     -67.268 -58.292 -35.425  0.00  0.00    +0.000 C 
ATOM     86  C80 UNK     0     -66.852 -57.885 -34.012  0.00  0.00    +0.000 C 
ATOM     87  C81 UNK     0     -68.474 -57.454 -35.861  0.00  0.00    +0.000 C 
ENDBRANCH  84  85
ENDBRANCH  42  84
BRANCH   9  88
ATOM     88  C15 UNK     0     -71.244 -57.016 -44.207  0.00  0.00    +0.000 C 
BRANCH  88  89
ATOM     89  C16 UNK     0     -70.457 -56.705 -45.503  0.00  0.00    +0.000 C 
ATOM     90  C17 UNK     0     -70.454 -57.865 -46.495  0.00  0.00    +0.000 C 
ATOM     91  C18 UNK     0     -71.036 -55.456 -46.173  0.00  0.00    +0.000 C 
ENDBRANCH  88  89
ENDBRANCH   9  88
TORSDOF 17
ENDMDL
MODEL 4
REMARK VINA RESULT:      -4.9     35.014     41.812
REMARK  Name = CyclosporineA.pdb
REMARK  40 active torsions:
REMARK  status: ('A' for Active; 'I' for Inactive)
REMARK    1  A    between atoms: C1_1  and  C78_78
REMARK    2  A    between atoms: N7_7  and  C8_8
REMARK    3  A    between atoms: C9_9  and  C15_15
REMARK    4  A    between atoms: N11_11  and  C20_20
REMARK    5  A    between atoms: C12_12  and  C21_21
REMARK    6  A    between atoms: N14_14  and  C23_23
REMARK    7  A    between atoms: C15_15  and  C16_16
REMARK    8  A    between atoms: C16_16  and  C17_17
REMARK    9  A    between atoms: C16_16  and  C18_18
REMARK   10  A    between atoms: C21_21  and  C82_82
REMARK   11  A    between atoms: C24_24  and  C25_25
REMARK   12  A    between atoms: C25_25  and  C30_30
REMARK   13  A    between atoms: C25_25  and  C31_31
REMARK   14  A    between atoms: C26_26  and  O27_27
REMARK   15  A    between atoms: N28_28  and  C29_29
REMARK   16  A    between atoms: C32_32  and  C34_34
REMARK   17  A    between atoms: C34_34  and  C35_35
REMARK   18  A    between atoms: C34_34  and  O40_40
REMARK   19  A    between atoms: C35_35  and  C36_36
REMARK   20  A    between atoms: C35_35  and  C41_41
REMARK   21  A    between atoms: C36_36  and  C37_37
REMARK   22  A    between atoms: C38_38  and  C39_39
REMARK   23  A    between atoms: C44_44  and  C45_45
REMARK   24  A    between atoms: C45_45  and  C46_46
REMARK   25  A    between atoms: N49_49  and  C77_77
REMARK   26  A    between atoms: C53_53  and  C57_57
REMARK   27  A    between atoms: C57_57  and  C58_58
REMARK   28  A    between atoms: C58_58  and  C59_59
REMARK   29  A    between atoms: C58_58  and  C76_76
REMARK   30  A    between atoms: C61_61  and  C62_62
REMARK   31  A    between atoms: C62_62  and  C63_63
REMARK   32  A    between atoms: C62_62  and  C64_64
REMARK   33  A    between atoms: N66_66  and  C68_68
REMARK   34  A    between atoms: C67_67  and  C75_75
REMARK   35  A    between atoms: C73_73  and  C74_74
REMARK   36  A    between atoms: C75_75  and  C79_79
REMARK   37  A    between atoms: C79_79  and  C80_80
REMARK   38  A    between atoms: C79_79  and  C81_81
REMARK   39  A    between atoms: C82_82  and  C83_83
REMARK   40  A    between atoms: C82_82  and  C84_84
REMARK                            x       y       z     vdW  Elec       q    Type
REMARK                         _______ _______ _______ _____ _____    ______ ____
ROOT
ATOM      1  C1  UNK     0     -60.764 -61.790 -56.447  0.00  0.00    +0.000 C 
ATOM      2  C2  UNK     0     -59.778 -61.128 -55.444  0.00  0.00    +0.000 C 
ATOM      3  N3  UNK     0     -60.051 -61.881 -57.711  0.00  0.00    +0.000 N 
ATOM      4  C4  UNK     0     -60.334 -62.819 -58.675  0.00  0.00    +0.000 C 
ATOM      5  O5  UNK     0     -61.154 -63.720 -58.511  0.00  0.00    +0.000 OA
ATOM      6  C6  UNK     0     -59.950 -59.826 -55.137  0.00  0.00    +0.000 C 
ATOM      7  N7  UNK     0     -58.711 -61.921 -54.918  0.00  0.00    +0.000 N 
ATOM      8  C8  UNK     0     -58.613 -63.361 -55.225  0.00  0.00    +0.000 C 
ATOM      9  C9  UNK     0     -57.619 -61.349 -54.048  0.00  0.00    +0.000 C 
ATOM     10  C10 UNK     0     -56.481 -60.706 -54.918  0.00  0.00    +0.000 C 
ATOM     11  N11 UNK     0     -55.810 -59.544 -54.423  0.00  0.00    +0.000 N 
ATOM     12  C12 UNK     0     -55.107 -58.569 -55.320  0.00  0.00    +0.000 C 
ATOM     13  C13 UNK     0     -53.555 -58.660 -55.149  0.00  0.00    +0.000 C 
ATOM     14  N14 UNK     0     -52.792 -57.501 -55.452  0.00  0.00    +0.000 N 
ATOM     15  C19 UNK     0     -56.170 -61.246 -56.115  0.00  0.00    +0.000 C 
ATOM     16  C20 UNK     0     -55.848 -59.164 -53.004  0.00  0.00    +0.000 C 
ATOM     17  C22 UNK     0     -52.954 -59.769 -54.673  0.00  0.00    +0.000 C 
ATOM     18  C23 UNK     0     -52.264 -56.829 -54.226  0.00  0.00    +0.000 C 
ATOM     19  C24 UNK     0     -51.761 -57.533 -56.589  0.00  0.00    +0.000 C 
ATOM     20  C26 UNK     0     -51.207 -56.049 -56.841  0.00  0.00    +0.000 C 
ATOM     21  N28 UNK     0     -50.355 -55.925 -58.026  0.00  0.00    +0.000 NA
ATOM     22  C29 UNK     0     -48.973 -56.311 -57.721  0.00  0.00    +0.000 C 
ATOM     23  C32 UNK     0     -50.435 -54.612 -58.747  0.00  0.00    +0.000 C 
ATOM     24  C33 UNK     0     -49.886 -54.883 -60.174  0.00  0.00    +0.000 C 
ATOM     25  O42 UNK     0     -48.866 -54.378 -60.631  0.00  0.00    +0.000 OA
ATOM     26  N43 UNK     0     -50.666 -55.801 -60.852  0.00  0.00    +0.000 N 
ATOM     27  C44 UNK     0     -50.391 -56.238 -62.206  0.00  0.00    +0.000 C 
ATOM     28  C47 UNK     0     -50.863 -55.145 -63.195  0.00  0.00    +0.000 C 
ATOM     29  C48 UNK     0     -49.906 -54.636 -63.999  0.00  0.00    +0.000 C 
ATOM     30  N49 UNK     0     -52.207 -54.690 -63.255  0.00  0.00    +0.000 N 
ATOM     31  C50 UNK     0     -53.313 -55.116 -62.352  0.00  0.00    +0.000 C 
ATOM     32  C51 UNK     0     -54.463 -55.776 -63.134  0.00  0.00    +0.000 C 
ATOM     33  N52 UNK     0     -54.061 -56.377 -64.308  0.00  0.00    +0.000 N 
ATOM     34  C53 UNK     0     -54.932 -57.275 -65.052  0.00  0.00    +0.000 C 
ATOM     35  C54 UNK     0     -54.951 -58.646 -64.326  0.00  0.00    +0.000 C 
ATOM     36  N55 UNK     0     -56.041 -59.433 -64.646  0.00  0.00    +0.000 N 
ATOM     37  O56 UNK     0     -55.622 -55.806 -62.729  0.00  0.00    +0.000 OA
ATOM     38  O60 UNK     0     -54.047 -59.011 -63.579  0.00  0.00    +0.000 OA
ATOM     39  C61 UNK     0     -56.354 -60.710 -63.987  0.00  0.00    +0.000 C 
ATOM     40  C65 UNK     0     -57.018 -60.381 -62.617  0.00  0.00    +0.000 C 
ATOM     41  N66 UNK     0     -58.239 -59.679 -62.634  0.00  0.00    +0.000 N 
ATOM     42  C67 UNK     0     -58.801 -59.300 -61.303  0.00  0.00    +0.000 C 
ATOM     43  C68 UNK     0     -59.193 -59.824 -63.734  0.00  0.00    +0.000 C 
ATOM     44  O69 UNK     0     -56.515 -60.735 -61.545  0.00  0.00    +0.000 OA
ATOM     45  C70 UNK     0     -59.605 -60.517 -60.784  0.00  0.00    +0.000 C 
ATOM     46  N71 UNK     0     -58.827 -61.466 -60.146  0.00  0.00    +0.000 N 
ATOM     47  O72 UNK     0     -60.800 -60.680 -61.014  0.00  0.00    +0.000 OA
ATOM     48  C73 UNK     0     -59.367 -62.800 -59.878  0.00  0.00    +0.000 C 
ATOM     49  C74 UNK     0     -58.227 -63.772 -59.590  0.00  0.00    +0.000 C 
ATOM     50  C77 UNK     0     -52.574 -53.508 -64.061  0.00  0.00    +0.000 C 
ATOM     51  C78 UNK     0     -62.121 -61.106 -56.654  0.00  0.00    +0.000 C 
ATOM     52  H2  UNK     0     -59.343 -61.186 -57.912  0.00  0.00    +0.000 HD
ATOM     53  H58 UNK     0     -51.301 -56.344 -60.282  0.00  0.00    +0.000 HD
ATOM     54  H69 UNK     0     -53.052 -56.469 -64.403  0.00  0.00    +0.000 HD
ATOM     55  H71 UNK     0     -56.828 -58.938 -65.042  0.00  0.00    +0.000 HD
ATOM     56  H90 UNK     0     -57.824 -61.389 -60.330  0.00  0.00    +0.000 HD
ENDROOT
BRANCH  39  57
ATOM     57  C62 UNK     0     -55.180 -61.721 -63.895  0.00  0.00    +0.000 C 
ATOM     58  C63 UNK     0     -55.671 -63.080 -63.369  0.00  0.00    +0.000 C 
ATOM     59  C64 UNK     0     -54.515 -61.951 -65.259  0.00  0.00    +0.000 C 
ENDBRANCH  39  57
BRANCH  19  60
ATOM     60  C25 UNK     0     -52.283 -58.151 -57.939  0.00  0.00    +0.000 C 
ATOM     61  C30 UNK     0     -52.210 -59.678 -58.018  0.00  0.00    +0.000 C 
ATOM     62  C31 UNK     0     -53.650 -57.653 -58.414  0.00  0.00    +0.000 C 
ENDBRANCH  19  60
BRANCH  20  63
ATOM     63  O27 UNK     0     -52.312 -55.139 -56.892  0.00  0.00    +0.000 OA
ATOM     64  H34 UNK     0     -51.897 -54.254 -56.823  0.00  0.00    +0.000 HD
ENDBRANCH  20  63
BRANCH  27  65
ATOM     65  C45 UNK     0     -50.968 -57.640 -62.471  0.00  0.00    +0.000 C 
ATOM     66  C46 UNK     0     -50.732 -58.616 -61.327  0.00  0.00    +0.000 C 
ENDBRANCH  27  65
BRANCH  23  67
ATOM     67  C34 UNK     0     -49.764 -53.371 -58.082  0.00  0.00    +0.000 C 
BRANCH  67  68
ATOM     68  C35 UNK     0     -50.279 -51.988 -58.591  0.00  0.00    +0.000 C 
ATOM     69  C41 UNK     0     -49.225 -51.142 -59.311  0.00  0.00    +0.000 C 
BRANCH  68  70
ATOM     70  C36 UNK     0     -50.890 -51.198 -57.403  0.00  0.00    +0.000 C 
BRANCH  70  71
ATOM     71  C37 UNK     0     -50.147 -49.929 -57.076  0.00  0.00    +0.000 C 
ATOM     72  C38 UNK     0     -50.727 -48.722 -56.996  0.00  0.00    +0.000 C 
ATOM     73  C39 UNK     0     -49.993 -47.461 -56.681  0.00  0.00    +0.000 C 
ENDBRANCH  70  71
ENDBRANCH  68  70
ENDBRANCH  67  68
BRANCH  67  74
ATOM     74  O40 UNK     0     -50.016 -53.386 -56.659  0.00  0.00    +0.000 OA
ATOM     75  H54 UNK     0     -50.977 -53.547 -56.566  0.00  0.00    +0.000 HD
ENDBRANCH  67  74
ENDBRANCH  23  67
BRANCH  34  76
ATOM     76  C57 UNK     0     -54.408 -57.404 -66.491  0.00  0.00    +0.000 C 
BRANCH  76  77
ATOM     77  C58 UNK     0     -55.466 -57.604 -67.594  0.00  0.00    +0.000 C 
ATOM     78  C59 UNK     0     -55.343 -56.574 -68.719  0.00  0.00    +0.000 C 
ATOM     79  C76 UNK     0     -55.340 -59.016 -68.176  0.00  0.00    +0.000 C 
ENDBRANCH  76  77
ENDBRANCH  34  76
BRANCH  12  80
ATOM     80  C21 UNK     0     -55.655 -57.124 -55.131  0.00  0.00    +0.000 C 
BRANCH  80  81
ATOM     81  C82 UNK     0     -56.882 -56.758 -55.988  0.00  0.00    +0.000 C 
ATOM     82  C83 UNK     0     -58.179 -56.755 -55.181  0.00  0.00    +0.000 C 
ATOM     83  C84 UNK     0     -57.007 -57.744 -57.154  0.00  0.00    +0.000 C 
ENDBRANCH  80  81
ENDBRANCH  12  80
BRANCH  42  84
ATOM     84  C75 UNK     0     -59.648 -58.012 -61.376  0.00  0.00    +0.000 C 
BRANCH  84  85
ATOM     85  C79 UNK     0     -59.707 -57.208 -60.061  0.00  0.00    +0.000 C 
ATOM     86  C80 UNK     0     -60.959 -57.502 -59.236  0.00  0.00    +0.000 C 
ATOM     87  C81 UNK     0     -59.642 -55.710 -60.372  0.00  0.00    +0.000 C 
ENDBRANCH  84  85
ENDBRANCH  42  84
BRANCH   9  88
ATOM     88  C15 UNK     0     -57.064 -62.331 -52.975  0.00  0.00    +0.000 C 
BRANCH  88  89
ATOM     89  C16 UNK     0     -57.702 -62.152 -51.576  0.00  0.00    +0.000 C 
ATOM     90  C17 UNK     0     -56.675 -61.891 -50.477  0.00  0.00    +0.000 C 
ATOM     91  C18 UNK     0     -58.717 -61.006 -51.614  0.00  0.00    +0.000 C 
ENDBRANCH  88  89
ENDBRANCH   9  88
TORSDOF 17
ENDMDL
MODEL 5
REMARK VINA RESULT:      -4.9     42.337     51.399
REMARK  Name = CyclosporineA.pdb
REMARK  40 active torsions:
REMARK  status: ('A' for Active; 'I' for Inactive)
REMARK    1  A    between atoms: C1_1  and  C78_78
REMARK    2  A    between atoms: N7_7  and  C8_8
REMARK    3  A    between atoms: C9_9  and  C15_15
REMARK    4  A    between atoms: N11_11  and  C20_20
REMARK    5  A    between atoms: C12_12  and  C21_21
REMARK    6  A    between atoms: N14_14  and  C23_23
REMARK    7  A    between atoms: C15_15  and  C16_16
REMARK    8  A    between atoms: C16_16  and  C17_17
REMARK    9  A    between atoms: C16_16  and  C18_18
REMARK   10  A    between atoms: C21_21  and  C82_82
REMARK   11  A    between atoms: C24_24  and  C25_25
REMARK   12  A    between atoms: C25_25  and  C30_30
REMARK   13  A    between atoms: C25_25  and  C31_31
REMARK   14  A    between atoms: C26_26  and  O27_27
REMARK   15  A    between atoms: N28_28  and  C29_29
REMARK   16  A    between atoms: C32_32  and  C34_34
REMARK   17  A    between atoms: C34_34  and  C35_35
REMARK   18  A    between atoms: C34_34  and  O40_40
REMARK   19  A    between atoms: C35_35  and  C36_36
REMARK   20  A    between atoms: C35_35  and  C41_41
REMARK   21  A    between atoms: C36_36  and  C37_37
REMARK   22  A    between atoms: C38_38  and  C39_39
REMARK   23  A    between atoms: C44_44  and  C45_45
REMARK   24  A    between atoms: C45_45  and  C46_46
REMARK   25  A    between atoms: N49_49  and  C77_77
REMARK   26  A    between atoms: C53_53  and  C57_57
REMARK   27  A    between atoms: C57_57  and  C58_58
REMARK   28  A    between atoms: C58_58  and  C59_59
REMARK   29  A    between atoms: C58_58  and  C76_76
REMARK   30  A    between atoms: C61_61  and  C62_62
REMARK   31  A    between atoms: C62_62  and  C63_63
REMARK   32  A    between atoms: C62_62  and  C64_64
REMARK   33  A    between atoms: N66_66  and  C68_68
REMARK   34  A    between atoms: C67_67  and  C75_75
REMARK   35  A    between atoms: C73_73  and  C74_74
REMARK   36  A    between atoms: C75_75  and  C79_79
REMARK   37  A    between atoms: C79_79  and  C80_80
REMARK   38  A    between atoms: C79_79  and  C81_81
REMARK   39  A    between atoms: C82_82  and  C83_83
REMARK   40  A    between atoms: C82_82  and  C84_84
REMARK                            x       y       z     vdW  Elec       q    Type
REMARK                         _______ _______ _______ _____ _____    ______ ____
ROOT
ATOM      1  C1  UNK     0     -51.418 -67.401 -72.761  0.00  0.00    +0.000 C 
ATOM      2  C2  UNK     0     -50.565 -66.140 -72.451  0.00  0.00    +0.000 C 
ATOM      3  N3  UNK     0     -52.761 -67.105 -72.287  0.00  0.00    +0.000 N 
ATOM      4  C4  UNK     0     -53.893 -67.693 -72.799  0.00  0.00    +0.000 C 
ATOM      5  O5  UNK     0     -53.873 -68.453 -73.765  0.00  0.00    +0.000 OA
ATOM      6  C6  UNK     0     -49.730 -66.171 -71.393  0.00  0.00    +0.000 C 
ATOM      7  N7  UNK     0     -50.730 -64.988 -73.284  0.00  0.00    +0.000 N 
ATOM      8  C8  UNK     0     -51.598 -65.032 -74.475  0.00  0.00    +0.000 C 
ATOM      9  C9  UNK     0     -50.059 -63.668 -72.995  0.00  0.00    +0.000 C 
ATOM     10  C10 UNK     0     -50.888 -62.825 -71.962  0.00  0.00    +0.000 C 
ATOM     11  N11 UNK     0     -50.188 -62.001 -71.027  0.00  0.00    +0.000 N 
ATOM     12  C12 UNK     0     -50.783 -61.571 -69.719  0.00  0.00    +0.000 C 
ATOM     13  C13 UNK     0     -51.117 -60.043 -69.725  0.00  0.00    +0.000 C 
ATOM     14  N14 UNK     0     -51.139 -59.371 -68.473  0.00  0.00    +0.000 N 
ATOM     15  C19 UNK     0     -52.235 -62.906 -71.964  0.00  0.00    +0.000 C 
ATOM     16  C20 UNK     0     -48.789 -61.598 -71.233  0.00  0.00    +0.000 C 
ATOM     17  C22 UNK     0     -51.316 -59.360 -70.870  0.00  0.00    +0.000 C 
ATOM     18  C23 UNK     0     -49.956 -58.479 -68.284  0.00  0.00    +0.000 C 
ATOM     19  C24 UNK     0     -52.439 -58.732 -67.965  0.00  0.00    +0.000 C 
ATOM     20  C26 UNK     0     -52.228 -58.233 -66.456  0.00  0.00    +0.000 C 
ATOM     21  N28 UNK     0     -53.455 -57.774 -65.802  0.00  0.00    +0.000 NA
ATOM     22  C29 UNK     0     -53.741 -56.377 -66.147  0.00  0.00    +0.000 C 
ATOM     23  C32 UNK     0     -53.538 -58.027 -64.326  0.00  0.00    +0.000 C 
ATOM     24  C33 UNK     0     -55.047 -57.941 -63.969  0.00  0.00    +0.000 C 
ATOM     25  O42 UNK     0     -55.537 -57.092 -63.234  0.00  0.00    +0.000 OA
ATOM     26  N43 UNK     0     -55.778 -58.918 -64.620  0.00  0.00    +0.000 N 
ATOM     27  C44 UNK     0     -57.210 -59.076 -64.470  0.00  0.00    +0.000 C 
ATOM     28  C47 UNK     0     -57.501 -59.790 -63.127  0.00  0.00    +0.000 C 
ATOM     29  C48 UNK     0     -58.274 -59.104 -62.260  0.00  0.00    +0.000 C 
ATOM     30  N49 UNK     0     -56.985 -61.075 -62.812  0.00  0.00    +0.000 N 
ATOM     31  C50 UNK     0     -56.049 -61.870 -63.656  0.00  0.00    +0.000 C 
ATOM     32  C51 UNK     0     -56.663 -63.222 -64.064  0.00  0.00    +0.000 C 
ATOM     33  N52 UNK     0     -58.040 -63.211 -64.122  0.00  0.00    +0.000 N 
ATOM     34  C53 UNK     0     -58.795 -64.293 -64.738  0.00  0.00    +0.000 C 
ATOM     35  C54 UNK     0     -58.703 -64.134 -66.278  0.00  0.00    +0.000 C 
ATOM     36  N55 UNK     0     -58.981 -65.294 -66.976  0.00  0.00    +0.000 N 
ATOM     37  O56 UNK     0     -55.988 -64.206 -64.357  0.00  0.00    +0.000 OA
ATOM     38  O60 UNK     0     -58.458 -63.060 -66.819  0.00  0.00    +0.000 OA
ATOM     39  C61 UNK     0     -58.826 -65.433 -68.432  0.00  0.00    +0.000 C 
ATOM     40  C65 UNK     0     -57.310 -65.644 -68.725  0.00  0.00    +0.000 C 
ATOM     41  N66 UNK     0     -56.693 -66.791 -68.188  0.00  0.00    +0.000 N 
ATOM     42  C67 UNK     0     -55.222 -66.915 -68.410  0.00  0.00    +0.000 C 
ATOM     43  C68 UNK     0     -57.435 -68.036 -67.983  0.00  0.00    +0.000 C 
ATOM     44  O69 UNK     0     -56.662 -64.853 -69.419  0.00  0.00    +0.000 OA
ATOM     45  C70 UNK     0     -55.023 -67.563 -69.801  0.00  0.00    +0.000 C 
ATOM     46  N71 UNK     0     -55.069 -66.658 -70.847  0.00  0.00    +0.000 N 
ATOM     47  O72 UNK     0     -54.944 -68.776 -69.973  0.00  0.00    +0.000 OA
ATOM     48  C73 UNK     0     -55.212 -67.133 -72.225  0.00  0.00    +0.000 C 
ATOM     49  C74 UNK     0     -55.675 -65.990 -73.121  0.00  0.00    +0.000 C 
ATOM     50  C77 UNK     0     -57.111 -61.631 -61.450  0.00  0.00    +0.000 C 
ATOM     51  C78 UNK     0     -50.936 -68.736 -72.179  0.00  0.00    +0.000 C 
ATOM     52  H2  UNK     0     -52.863 -66.469 -71.506  0.00  0.00    +0.000 HD
ATOM     53  H58 UNK     0     -55.314 -59.368 -65.399  0.00  0.00    +0.000 HD
ATOM     54  H69 UNK     0     -58.450 -62.281 -64.075  0.00  0.00    +0.000 HD
ATOM     55  H71 UNK     0     -58.903 -66.148 -66.442  0.00  0.00    +0.000 HD
ATOM     56  H90 UNK     0     -55.487 -65.755 -70.612  0.00  0.00    +0.000 HD
ENDROOT
BRANCH  39  57
ATOM     57  C62 UNK     0     -59.486 -64.318 -69.286  0.00  0.00    +0.000 C 
ATOM     58  C63 UNK     0     -59.374 -64.641 -70.785  0.00  0.00    +0.000 C 
ATOM     59  C64 UNK     0     -60.972 -64.142 -68.946  0.00  0.00    +0.000 C 
ENDBRANCH  39  57
BRANCH  19  60
ATOM     60  C25 UNK     0     -53.711 -59.654 -68.056  0.00  0.00    +0.000 C 
ATOM     61  C30 UNK     0     -54.452 -59.598 -69.395  0.00  0.00    +0.000 C 
ATOM     62  C31 UNK     0     -53.513 -61.106 -67.612  0.00  0.00    +0.000 C 
ENDBRANCH  19  60
BRANCH  20  63
ATOM     63  O27 UNK     0     -51.592 -59.275 -65.704  0.00  0.00    +0.000 OA
ATOM     64  H34 UNK     0     -52.024 -59.233 -64.825  0.00  0.00    +0.000 HD
ENDBRANCH  20  63
BRANCH  27  65
ATOM     65  C45 UNK     0     -57.833 -59.749 -65.705  0.00  0.00    +0.000 C 
ATOM     66  C46 UNK     0     -56.904 -59.776 -66.911  0.00  0.00    +0.000 C 
ENDBRANCH  27  65
BRANCH  23  67
ATOM     67  C34 UNK     0     -52.658 -57.149 -63.384  0.00  0.00    +0.000 C 
BRANCH  67  68
ATOM     68  C35 UNK     0     -52.670 -57.573 -61.882  0.00  0.00    +0.000 C 
ATOM     69  C41 UNK     0     -51.429 -57.151 -61.091  0.00  0.00    +0.000 C 
BRANCH  68  70
ATOM     70  C36 UNK     0     -52.881 -59.108 -61.783  0.00  0.00    +0.000 C 
BRANCH  70  71
ATOM     71  C37 UNK     0     -53.971 -59.507 -60.823  0.00  0.00    +0.000 C 
ATOM     72  C38 UNK     0     -54.781 -58.634 -60.206  0.00  0.00    +0.000 C 
ATOM     73  C39 UNK     0     -55.857 -59.026 -59.247  0.00  0.00    +0.000 C 
ENDBRANCH  70  71
ENDBRANCH  68  70
ENDBRANCH  67  68
BRANCH  67  74
ATOM     74  O40 UNK     0     -51.276 -57.221 -63.802  0.00  0.00    +0.000 OA
ATOM     75  H54 UNK     0     -50.956 -56.296 -63.807  0.00  0.00    +0.000 HD
ENDBRANCH  67  74
ENDBRANCH  23  67
BRANCH  34  76
ATOM     76  C57 UNK     0     -60.251 -64.230 -64.248  0.00  0.00    +0.000 C 
BRANCH  76  77
ATOM     77  C58 UNK     0     -61.187 -63.259 -64.995  0.00  0.00    +0.000 C 
ATOM     78  C59 UNK     0     -62.486 -63.927 -65.446  0.00  0.00    +0.000 C 
ATOM     79  C76 UNK     0     -61.512 -62.064 -64.090  0.00  0.00    +0.000 C 
ENDBRANCH  76  77
ENDBRANCH  34  76
BRANCH  12  80
ATOM     80  C21 UNK     0     -49.885 -61.991 -68.518  0.00  0.00    +0.000 C 
BRANCH  80  81
ATOM     81  C82 UNK     0     -50.411 -63.169 -67.673  0.00  0.00    +0.000 C 
ATOM     82  C83 UNK     0     -50.337 -62.890 -66.173  0.00  0.00    +0.000 C 
ATOM     83  C84 UNK     0     -49.610 -64.434 -67.999  0.00  0.00    +0.000 C 
ENDBRANCH  80  81
ENDBRANCH  12  80
BRANCH  42  84
ATOM     84  C75 UNK     0     -54.530 -67.704 -67.279  0.00  0.00    +0.000 C 
BRANCH  84  85
ATOM     85  C79 UNK     0     -53.279 -67.018 -66.691  0.00  0.00    +0.000 C 
ATOM     86  C80 UNK     0     -53.407 -65.496 -66.624  0.00  0.00    +0.000 C 
ATOM     87  C81 UNK     0     -52.049 -67.389 -67.525  0.00  0.00    +0.000 C 
ENDBRANCH  84  85
ENDBRANCH  42  84
BRANCH   9  88
ATOM     88  C15 UNK     0     -49.675 -62.846 -74.261  0.00  0.00    +0.000 C 
BRANCH  88  89
ATOM     89  C16 UNK     0     -50.579 -61.614 -74.502  0.00  0.00    +0.000 C 
ATOM     90  C17 UNK     0     -49.811 -60.295 -74.490  0.00  0.00    +0.000 C 
ATOM     91  C18 UNK     0     -51.317 -61.767 -75.836  0.00  0.00    +0.000 C 
ENDBRANCH  88  89
ENDBRANCH   9  88
TORSDOF 17
ENDMDL
MODEL 6
REMARK VINA RESULT:      -4.9     27.435     34.878
REMARK  Name = CyclosporineA.pdb
REMARK  40 active torsions:
REMARK  status: ('A' for Active; 'I' for Inactive)
REMARK    1  A    between atoms: C1_1  and  C78_78
REMARK    2  A    between atoms: N7_7  and  C8_8
REMARK    3  A    between atoms: C9_9  and  C15_15
REMARK    4  A    between atoms: N11_11  and  C20_20
REMARK    5  A    between atoms: C12_12  and  C21_21
REMARK    6  A    between atoms: N14_14  and  C23_23
REMARK    7  A    between atoms: C15_15  and  C16_16
REMARK    8  A    between atoms: C16_16  and  C17_17
REMARK    9  A    between atoms: C16_16  and  C18_18
REMARK   10  A    between atoms: C21_21  and  C82_82
REMARK   11  A    between atoms: C24_24  and  C25_25
REMARK   12  A    between atoms: C25_25  and  C30_30
REMARK   13  A    between atoms: C25_25  and  C31_31
REMARK   14  A    between atoms: C26_26  and  O27_27
REMARK   15  A    between atoms: N28_28  and  C29_29
REMARK   16  A    between atoms: C32_32  and  C34_34
REMARK   17  A    between atoms: C34_34  and  C35_35
REMARK   18  A    between atoms: C34_34  and  O40_40
REMARK   19  A    between atoms: C35_35  and  C36_36
REMARK   20  A    between atoms: C35_35  and  C41_41
REMARK   21  A    between atoms: C36_36  and  C37_37
REMARK   22  A    between atoms: C38_38  and  C39_39
REMARK   23  A    between atoms: C44_44  and  C45_45
REMARK   24  A    between atoms: C45_45  and  C46_46
REMARK   25  A    between atoms: N49_49  and  C77_77
REMARK   26  A    between atoms: C53_53  and  C57_57
REMARK   27  A    between atoms: C57_57  and  C58_58
REMARK   28  A    between atoms: C58_58  and  C59_59
REMARK   29  A    between atoms: C58_58  and  C76_76
REMARK   30  A    between atoms: C61_61  and  C62_62
REMARK   31  A    between atoms: C62_62  and  C63_63
REMARK   32  A    between atoms: C62_62  and  C64_64
REMARK   33  A    between atoms: N66_66  and  C68_68
REMARK   34  A    between atoms: C67_67  and  C75_75
REMARK   35  A    between atoms: C73_73  and  C74_74
REMARK   36  A    between atoms: C75_75  and  C79_79
REMARK   37  A    between atoms: C79_79  and  C80_80
REMARK   38  A    between atoms: C79_79  and  C81_81
REMARK   39  A    between atoms: C82_82  and  C83_83
REMARK   40  A    between atoms: C82_82  and  C84_84
REMARK                            x       y       z     vdW  Elec       q    Type
REMARK                         _______ _______ _______ _____ _____    ______ ____
ROOT
ATOM      1  C1  UNK     0     -61.431 -42.498 -45.976  0.00  0.00    +0.000 C 
ATOM      2  C2  UNK     0     -60.084 -41.985 -46.556  0.00  0.00    +0.000 C 
ATOM      3  N3  UNK     0     -62.030 -43.319 -47.016  0.00  0.00    +0.000 N 
ATOM      4  C4  UNK     0     -62.918 -44.337 -46.761  0.00  0.00    +0.000 C 
ATOM      5  O5  UNK     0     -63.211 -44.699 -45.624  0.00  0.00    +0.000 OA
ATOM      6  C6  UNK     0     -60.014 -40.712 -46.996  0.00  0.00    +0.000 C 
ATOM      7  N7  UNK     0     -58.985 -42.898 -46.628  0.00  0.00    +0.000 N 
ATOM      8  C8  UNK     0     -59.089 -44.256 -46.062  0.00  0.00    +0.000 C 
ATOM      9  C9  UNK     0     -57.676 -42.552 -47.296  0.00  0.00    +0.000 C 
ATOM     10  C10 UNK     0     -57.752 -42.790 -48.846  0.00  0.00    +0.000 C 
ATOM     11  N11 UNK     0     -57.030 -41.912 -49.713  0.00  0.00    +0.000 N 
ATOM     12  C12 UNK     0     -57.401 -41.702 -51.151  0.00  0.00    +0.000 C 
ATOM     13  C13 UNK     0     -56.348 -42.352 -52.108  0.00  0.00    +0.000 C 
ATOM     14  N14 UNK     0     -56.217 -41.800 -53.410  0.00  0.00    +0.000 N 
ATOM     15  C19 UNK     0     -58.505 -43.800 -49.330  0.00  0.00    +0.000 C 
ATOM     16  C20 UNK     0     -55.927 -41.068 -49.230  0.00  0.00    +0.000 C 
ATOM     17  C22 UNK     0     -55.544 -43.357 -51.707  0.00  0.00    +0.000 C 
ATOM     18  C23 UNK     0     -54.957 -41.012 -53.570  0.00  0.00    +0.000 C 
ATOM     19  C24 UNK     0     -56.530 -42.656 -54.645  0.00  0.00    +0.000 C 
ATOM     20  C26 UNK     0     -56.499 -41.728 -55.953  0.00  0.00    +0.000 C 
ATOM     21  N28 UNK     0     -56.965 -42.397 -57.169  0.00  0.00    +0.000 NA
ATOM     22  C29 UNK     0     -55.885 -43.177 -57.785  0.00  0.00    +0.000 C 
ATOM     23  C32 UNK     0     -57.674 -41.522 -58.159  0.00  0.00    +0.000 C 
ATOM     24  C33 UNK     0     -58.489 -42.486 -59.064  0.00  0.00    +0.000 C 
ATOM     25  O42 UNK     0     -58.292 -42.643 -60.264  0.00  0.00    +0.000 OA
ATOM     26  N43 UNK     0     -59.439 -43.181 -58.338  0.00  0.00    +0.000 N 
ATOM     27  C44 UNK     0     -60.345 -44.146 -58.926  0.00  0.00    +0.000 C 
ATOM     28  C47 UNK     0     -61.488 -43.391 -59.648  0.00  0.00    +0.000 C 
ATOM     29  C48 UNK     0     -61.607 -43.644 -60.968  0.00  0.00    +0.000 C 
ATOM     30  N49 UNK     0     -62.351 -42.481 -58.981  0.00  0.00    +0.000 N 
ATOM     31  C50 UNK     0     -62.242 -42.062 -57.556  0.00  0.00    +0.000 C 
ATOM     32  C51 UNK     0     -63.509 -42.427 -56.759  0.00  0.00    +0.000 C 
ATOM     33  N52 UNK     0     -64.186 -43.517 -57.264  0.00  0.00    +0.000 N 
ATOM     34  C53 UNK     0     -65.243 -44.181 -56.515  0.00  0.00    +0.000 C 
ATOM     35  C54 UNK     0     -64.584 -45.063 -55.423  0.00  0.00    +0.000 C 
ATOM     36  N55 UNK     0     -65.434 -45.393 -54.384  0.00  0.00    +0.000 N 
ATOM     37  O56 UNK     0     -63.858 -41.832 -55.743  0.00  0.00    +0.000 OA
ATOM     38  O60 UNK     0     -63.429 -45.471 -55.509  0.00  0.00    +0.000 OA
ATOM     39  C61 UNK     0     -65.008 -46.100 -53.167  0.00  0.00    +0.000 C 
ATOM     40  C65 UNK     0     -64.309 -45.061 -52.240  0.00  0.00    +0.000 C 
ATOM     41  N66 UNK     0     -65.080 -43.979 -51.773  0.00  0.00    +0.000 N 
ATOM     42  C67 UNK     0     -64.357 -42.954 -50.963  0.00  0.00    +0.000 C 
ATOM     43  C68 UNK     0     -66.519 -44.106 -51.540  0.00  0.00    +0.000 C 
ATOM     44  O69 UNK     0     -63.127 -45.179 -51.900  0.00  0.00    +0.000 OA
ATOM     45  C70 UNK     0     -64.335 -43.459 -49.500  0.00  0.00    +0.000 C 
ATOM     46  N71 UNK     0     -63.306 -44.345 -49.234  0.00  0.00    +0.000 N 
ATOM     47  O72 UNK     0     -65.211 -43.190 -48.683  0.00  0.00    +0.000 OA
ATOM     48  C73 UNK     0     -63.325 -45.148 -48.009  0.00  0.00    +0.000 C 
ATOM     49  C74 UNK     0     -62.366 -46.326 -48.147  0.00  0.00    +0.000 C 
ATOM     50  C77 UNK     0     -63.288 -41.628 -59.740  0.00  0.00    +0.000 C 
ATOM     51  C78 UNK     0     -62.434 -41.443 -45.493  0.00  0.00    +0.000 C 
ATOM     52  H2  UNK     0     -61.820 -43.097 -47.981  0.00  0.00    +0.000 HD
ATOM     53  H58 UNK     0     -59.317 -43.172 -57.333  0.00  0.00    +0.000 HD
ATOM     54  H69 UNK     0     -63.666 -44.040 -57.964  0.00  0.00    +0.000 HD
ATOM     55  H71 UNK     0     -66.245 -44.798 -54.286  0.00  0.00    +0.000 HD
ATOM     56  H90 UNK     0     -62.871 -44.756 -50.064  0.00  0.00    +0.000 HD
ENDROOT
BRANCH  39  57
ATOM     57  C62 UNK     0     -64.184 -47.395 -53.398  0.00  0.00    +0.000 C 
ATOM     58  C63 UNK     0     -63.990 -48.161 -52.079  0.00  0.00    +0.000 C 
ATOM     59  C64 UNK     0     -64.870 -48.337 -54.398  0.00  0.00    +0.000 C 
ENDBRANCH  39  57
BRANCH  19  60
ATOM     60  C25 UNK     0     -57.890 -43.446 -54.576  0.00  0.00    +0.000 C 
ATOM     61  C30 UNK     0     -57.802 -44.820 -53.907  0.00  0.00    +0.000 C 
ATOM     62  C31 UNK     0     -59.088 -42.661 -54.037  0.00  0.00    +0.000 C 
ENDBRANCH  19  60
BRANCH  20  63
ATOM     63  O27 UNK     0     -57.242 -40.531 -55.695  0.00  0.00    +0.000 OA
ATOM     64  H34 UNK     0     -56.608 -39.809 -55.889  0.00  0.00    +0.000 HD
ENDBRANCH  20  63
BRANCH  27  65
ATOM     65  C45 UNK     0     -60.813 -45.181 -57.888  0.00  0.00    +0.000 C 
ATOM     66  C46 UNK     0     -61.613 -46.325 -58.496  0.00  0.00    +0.000 C 
ENDBRANCH  27  65
BRANCH  23  67
ATOM     67  C34 UNK     0     -56.818 -40.516 -58.990  0.00  0.00    +0.000 C 
BRANCH  67  68
ATOM     68  C35 UNK     0     -57.617 -39.336 -59.627  0.00  0.00    +0.000 C 
ATOM     69  C41 UNK     0     -56.773 -38.103 -59.961  0.00  0.00    +0.000 C 
BRANCH  68  70
ATOM     70  C36 UNK     0     -58.795 -38.950 -58.692  0.00  0.00    +0.000 C 
BRANCH  70  71
ATOM     71  C37 UNK     0     -58.562 -37.677 -57.921  0.00  0.00    +0.000 C 
ATOM     72  C38 UNK     0     -58.931 -37.497 -56.644  0.00  0.00    +0.000 C 
ATOM     73  C39 UNK     0     -58.710 -36.233 -55.880  0.00  0.00    +0.000 C 
ENDBRANCH  70  71
ENDBRANCH  68  70
ENDBRANCH  67  68
BRANCH  67  74
ATOM     74  O40 UNK     0     -55.823 -39.904 -58.138  0.00  0.00    +0.000 OA
ATOM     75  H54 UNK     0     -55.108 -40.568 -58.055  0.00  0.00    +0.000 HD
ENDBRANCH  67  74
ENDBRANCH  23  67
BRANCH  34  76
ATOM     76  C57 UNK     0     -66.091 -45.020 -57.484  0.00  0.00    +0.000 C 
BRANCH  76  77
ATOM     77  C58 UNK     0     -65.412 -46.261 -58.096  0.00  0.00    +0.000 C 
ATOM     78  C59 UNK     0     -66.210 -47.544 -57.859  0.00  0.00    +0.000 C 
ATOM     79  C76 UNK     0     -65.218 -46.049 -59.602  0.00  0.00    +0.000 C 
ENDBRANCH  76  77
ENDBRANCH  34  76
BRANCH  12  80
ATOM     80  C21 UNK     0     -57.656 -40.198 -51.461  0.00  0.00    +0.000 C 
BRANCH  80  81
ATOM     81  C82 UNK     0     -59.126 -39.810 -51.720  0.00  0.00    +0.000 C 
ATOM     82  C83 UNK     0     -59.289 -38.934 -52.960  0.00  0.00    +0.000 C 
ATOM     83  C84 UNK     0     -59.688 -39.078 -50.497  0.00  0.00    +0.000 C 
ENDBRANCH  80  81
ENDBRANCH  12  80
BRANCH  42  84
ATOM     84  C75 UNK     0     -64.990 -41.553 -51.101  0.00  0.00    +0.000 C 
BRANCH  84  85
ATOM     85  C79 UNK     0     -64.046 -40.477 -51.677  0.00  0.00    +0.000 C 
ATOM     86  C80 UNK     0     -62.780 -41.063 -52.302  0.00  0.00    +0.000 C 
ATOM     87  C81 UNK     0     -63.657 -39.490 -50.571  0.00  0.00    +0.000 C 
ENDBRANCH  84  85
ENDBRANCH  42  84
BRANCH   9  88
ATOM     88  C15 UNK     0     -56.425 -43.218 -46.653  0.00  0.00    +0.000 C 
BRANCH  88  89
ATOM     89  C16 UNK     0     -55.766 -44.298 -47.543  0.00  0.00    +0.000 C 
ATOM     90  C17 UNK     0     -54.301 -44.005 -47.858  0.00  0.00    +0.000 C 
ATOM     91  C18 UNK     0     -55.883 -45.667 -46.867  0.00  0.00    +0.000 C 
ENDBRANCH  88  89
ENDBRANCH   9  88
TORSDOF 17
ENDMDL
MODEL 7
REMARK VINA RESULT:      -4.8     26.260     34.142
REMARK  Name = CyclosporineA.pdb
REMARK  40 active torsions:
REMARK  status: ('A' for Active; 'I' for Inactive)
REMARK    1  A    between atoms: C1_1  and  C78_78
REMARK    2  A    between atoms: N7_7  and  C8_8
REMARK    3  A    between atoms: C9_9  and  C15_15
REMARK    4  A    between atoms: N11_11  and  C20_20
REMARK    5  A    between atoms: C12_12  and  C21_21
REMARK    6  A    between atoms: N14_14  and  C23_23
REMARK    7  A    between atoms: C15_15  and  C16_16
REMARK    8  A    between atoms: C16_16  and  C17_17
REMARK    9  A    between atoms: C16_16  and  C18_18
REMARK   10  A    between atoms: C21_21  and  C82_82
REMARK   11  A    between atoms: C24_24  and  C25_25
REMARK   12  A    between atoms: C25_25  and  C30_30
REMARK   13  A    between atoms: C25_25  and  C31_31
REMARK   14  A    between atoms: C26_26  and  O27_27
REMARK   15  A    between atoms: N28_28  and  C29_29
REMARK   16  A    between atoms: C32_32  and  C34_34
REMARK   17  A    between atoms: C34_34  and  C35_35
REMARK   18  A    between atoms: C34_34  and  O40_40
REMARK   19  A    between atoms: C35_35  and  C36_36
REMARK   20  A    between atoms: C35_35  and  C41_41
REMARK   21  A    between atoms: C36_36  and  C37_37
REMARK   22  A    between atoms: C38_38  and  C39_39
REMARK   23  A    between atoms: C44_44  and  C45_45
REMARK   24  A    between atoms: C45_45  and  C46_46
REMARK   25  A    between atoms: N49_49  and  C77_77
REMARK   26  A    between atoms: C53_53  and  C57_57
REMARK   27  A    between atoms: C57_57  and  C58_58
REMARK   28  A    between atoms: C58_58  and  C59_59
REMARK   29  A    between atoms: C58_58  and  C76_76
REMARK   30  A    between atoms: C61_61  and  C62_62
REMARK   31  A    between atoms: C62_62  and  C63_63
REMARK   32  A    between atoms: C62_62  and  C64_64
REMARK   33  A    between atoms: N66_66  and  C68_68
REMARK   34  A    between atoms: C67_67  and  C75_75
REMARK   35  A    between atoms: C73_73  and  C74_74
REMARK   36  A    between atoms: C75_75  and  C79_79
REMARK   37  A    between atoms: C79_79  and  C80_80
REMARK   38  A    between atoms: C79_79  and  C81_81
REMARK   39  A    between atoms: C82_82  and  C83_83
REMARK   40  A    between atoms: C82_82  and  C84_84
REMARK                            x       y       z     vdW  Elec       q    Type
REMARK                         _______ _______ _______ _____ _____    ______ ____
ROOT
ATOM      1  C1  UNK     0     -68.126 -57.472 -45.711  0.00  0.00    +0.000 C 
ATOM      2  C2  UNK     0     -66.623 -57.825 -45.537  0.00  0.00    +0.000 C 
ATOM      3  N3  UNK     0     -68.470 -57.839 -47.076  0.00  0.00    +0.000 N 
ATOM      4  C4  UNK     0     -69.743 -58.170 -47.474  0.00  0.00    +0.000 C 
ATOM      5  O5  UNK     0     -70.684 -58.273 -46.689  0.00  0.00    +0.000 OA
ATOM      6  C6  UNK     0     -65.718 -56.826 -45.573  0.00  0.00    +0.000 C 
ATOM      7  N7  UNK     0     -66.263 -59.201 -45.379  0.00  0.00    +0.000 N 
ATOM      8  C8  UNK     0     -67.297 -60.247 -45.268  0.00  0.00    +0.000 C 
ATOM      9  C9  UNK     0     -64.830 -59.672 -45.340  0.00  0.00    +0.000 C 
ATOM     10  C10 UNK     0     -64.258 -59.868 -46.789  0.00  0.00    +0.000 C 
ATOM     11  N11 UNK     0     -62.880 -59.574 -47.030  0.00  0.00    +0.000 N 
ATOM     12  C12 UNK     0     -62.348 -59.230 -48.390  0.00  0.00    +0.000 C 
ATOM     13  C13 UNK     0     -61.462 -60.387 -48.960  0.00  0.00    +0.000 C 
ATOM     14  N14 UNK     0     -60.462 -60.040 -49.908  0.00  0.00    +0.000 N 
ATOM     15  C19 UNK     0     -65.075 -60.288 -47.777  0.00  0.00    +0.000 C 
ATOM     16  C20 UNK     0     -61.897 -59.487 -45.941  0.00  0.00    +0.000 C 
ATOM     17  C22 UNK     0     -61.588 -61.659 -48.533  0.00  0.00    +0.000 C 
ATOM     18  C23 UNK     0     -59.085 -60.106 -49.332  0.00  0.00    +0.000 C 
ATOM     19  C24 UNK     0     -60.525 -60.603 -51.334  0.00  0.00    +0.000 C 
ATOM     20  C26 UNK     0     -59.404 -59.891 -52.233  0.00  0.00    +0.000 C 
ATOM     21  N28 UNK     0     -59.491 -60.212 -53.659  0.00  0.00    +0.000 NA
ATOM     22  C29 UNK     0     -58.816 -61.481 -53.952  0.00  0.00    +0.000 C 
ATOM     23  C32 UNK     0     -59.079 -59.116 -54.597  0.00  0.00    +0.000 C 
ATOM     24  C33 UNK     0     -59.715 -59.475 -55.967  0.00  0.00    +0.000 C 
ATOM     25  O42 UNK     0     -59.076 -59.749 -56.977  0.00  0.00    +0.000 OA
ATOM     26  N43 UNK     0     -61.096 -59.492 -55.896  0.00  0.00    +0.000 N 
ATOM     27  C44 UNK     0     -61.950 -59.793 -57.027  0.00  0.00    +0.000 C 
ATOM     28  C47 UNK     0     -62.038 -58.544 -57.939  0.00  0.00    +0.000 C 
ATOM     29  C48 UNK     0     -61.616 -58.721 -59.209  0.00  0.00    +0.000 C 
ATOM     30  N49 UNK     0     -62.517 -57.288 -57.479  0.00  0.00    +0.000 N 
ATOM     31  C50 UNK     0     -62.914 -56.965 -56.080  0.00  0.00    +0.000 C 
ATOM     32  C51 UNK     0     -64.388 -56.530 -55.994  0.00  0.00    +0.000 C 
ATOM     33  N52 UNK     0     -65.181 -57.060 -56.989  0.00  0.00    +0.000 N 
ATOM     34  C53 UNK     0     -66.634 -56.992 -56.935  0.00  0.00    +0.000 C 
ATOM     35  C54 UNK     0     -67.135 -58.062 -55.930  0.00  0.00    +0.000 C 
ATOM     36  N55 UNK     0     -68.410 -57.826 -55.452  0.00  0.00    +0.000 N 
ATOM     37  O56 UNK     0     -64.827 -55.815 -55.097  0.00  0.00    +0.000 OA
ATOM     38  O60 UNK     0     -66.473 -59.053 -55.635  0.00  0.00    +0.000 OA
ATOM     39  C61 UNK     0     -69.048 -58.617 -54.390  0.00  0.00    +0.000 C 
ATOM     40  C65 UNK     0     -68.468 -58.130 -53.029  0.00  0.00    +0.000 C 
ATOM     41  N66 UNK     0     -68.698 -56.789 -52.662  0.00  0.00    +0.000 N 
ATOM     42  C67 UNK     0     -68.051 -56.330 -51.397  0.00  0.00    +0.000 C 
ATOM     43  C68 UNK     0     -69.904 -56.075 -53.082  0.00  0.00    +0.000 C 
ATOM     44  O69 UNK     0     -67.845 -58.885 -52.275  0.00  0.00    +0.000 OA
ATOM     45  C70 UNK     0     -68.995 -56.720 -50.234  0.00  0.00    +0.000 C 
ATOM     46  N71 UNK     0     -68.834 -58.025 -49.802  0.00  0.00    +0.000 N 
ATOM     47  O72 UNK     0     -69.880 -55.982 -49.809  0.00  0.00    +0.000 OA
ATOM     48  C73 UNK     0     -69.844 -58.643 -48.940  0.00  0.00    +0.000 C 
ATOM     49  C74 UNK     0     -69.686 -60.160 -48.964  0.00  0.00    +0.000 C 
ATOM     50  C77 UNK     0     -62.392 -56.076 -58.313  0.00  0.00    +0.000 C 
ATOM     51  C78 UNK     0     -68.543 -56.022 -45.434  0.00  0.00    +0.000 C 
ATOM     52  H2  UNK     0     -67.742 -57.801 -47.779  0.00  0.00    +0.000 HD
ATOM     53  H58 UNK     0     -61.487 -59.527 -54.964  0.00  0.00    +0.000 HD
ATOM     54  H69 UNK     0     -64.737 -57.804 -57.522  0.00  0.00    +0.000 HD
ATOM     55  H71 UNK     0     -68.737 -56.875 -55.549  0.00  0.00    +0.000 HD
ATOM     56  H90 UNK     0     -68.332 -58.632 -50.454  0.00  0.00    +0.000 HD
ENDROOT
BRANCH  39  57
ATOM     57  C62 UNK     0     -69.002 -60.157 -54.581  0.00  0.00    +0.000 C 
ATOM     58  C63 UNK     0     -69.840 -60.866 -53.504  0.00  0.00    +0.000 C 
ATOM     59  C64 UNK     0     -69.540 -60.578 -55.956  0.00  0.00    +0.000 C 
ENDBRANCH  39  57
BRANCH  19  60
ATOM     60  C25 UNK     0     -61.931 -60.485 -52.032  0.00  0.00    +0.000 C 
ATOM     61  C30 UNK     0     -62.875 -61.665 -51.780  0.00  0.00    +0.000 C 
ATOM     62  C31 UNK     0     -62.665 -59.157 -51.829  0.00  0.00    +0.000 C 
ENDBRANCH  19  60
BRANCH  20  63
ATOM     63  O27 UNK     0     -59.455 -58.476 -52.010  0.00  0.00    +0.000 OA
ATOM     64  H34 UNK     0     -58.913 -58.341 -51.204  0.00  0.00    +0.000 HD
ENDBRANCH  20  63
BRANCH  27  65
ATOM     65  C45 UNK     0     -63.308 -60.355 -56.572  0.00  0.00    +0.000 C 
ATOM     66  C46 UNK     0     -64.147 -60.906 -57.717  0.00  0.00    +0.000 C 
ENDBRANCH  27  65
BRANCH  23  67
ATOM     67  C34 UNK     0     -57.558 -58.791 -54.720  0.00  0.00    +0.000 C 
BRANCH  67  68
ATOM     68  C35 UNK     0     -57.217 -57.532 -55.576  0.00  0.00    +0.000 C 
ATOM     69  C41 UNK     0     -55.894 -56.853 -55.210  0.00  0.00    +0.000 C 
BRANCH  68  70
ATOM     70  C36 UNK     0     -58.390 -56.518 -55.488  0.00  0.00    +0.000 C 
BRANCH  70  71
ATOM     71  C37 UNK     0     -58.897 -56.064 -56.831  0.00  0.00    +0.000 C 
ATOM     72  C38 UNK     0     -58.496 -56.589 -57.999  0.00  0.00    +0.000 C 
ATOM     73  C39 UNK     0     -58.990 -56.135 -59.333  0.00  0.00    +0.000 C 
ENDBRANCH  70  71
ENDBRANCH  68  70
ENDBRANCH  67  68
BRANCH  67  74
ATOM     74  O40 UNK     0     -57.008 -58.537 -53.407  0.00  0.00    +0.000 OA
ATOM     75  H54 UNK     0     -56.040 -58.478 -53.537  0.00  0.00    +0.000 HD
ENDBRANCH  67  74
ENDBRANCH  23  67
BRANCH  34  76
ATOM     76  C57 UNK     0     -67.200 -57.231 -58.345  0.00  0.00    +0.000 C 
BRANCH  76  77
ATOM     77  C58 UNK     0     -67.362 -55.988 -59.242  0.00  0.00    +0.000 C 
ATOM     78  C59 UNK     0     -67.906 -56.331 -60.629  0.00  0.00    +0.000 C 
ATOM     79  C76 UNK     0     -68.297 -54.982 -58.559  0.00  0.00    +0.000 C 
ENDBRANCH  76  77
ENDBRANCH  34  76
BRANCH  12  80
ATOM     80  C21 UNK     0     -61.621 -57.853 -48.386  0.00  0.00    +0.000 C 
BRANCH  80  81
ATOM     81  C82 UNK     0     -62.383 -56.695 -49.060  0.00  0.00    +0.000 C 
ATOM     82  C83 UNK     0     -61.464 -55.789 -49.877  0.00  0.00    +0.000 C 
ATOM     83  C84 UNK     0     -63.105 -55.865 -47.994  0.00  0.00    +0.000 C 
ENDBRANCH  80  81
ENDBRANCH  12  80
BRANCH  42  84
ATOM     84  C75 UNK     0     -67.730 -54.821 -51.424  0.00  0.00    +0.000 C 
BRANCH  84  85
ATOM     85  C79 UNK     0     -66.277 -54.468 -51.042  0.00  0.00    +0.000 C 
ATOM     86  C80 UNK     0     -65.277 -55.561 -51.417  0.00  0.00    +0.000 C 
ATOM     87  C81 UNK     0     -66.194 -54.198 -49.536  0.00  0.00    +0.000 C 
ENDBRANCH  84  85
ENDBRANCH  42  84
BRANCH   9  88
ATOM     88  C15 UNK     0     -64.580 -60.911 -44.430  0.00  0.00    +0.000 C 
BRANCH  88  89
ATOM     89  C16 UNK     0     -64.221 -60.549 -42.969  0.00  0.00    +0.000 C 
ATOM     90  C17 UNK     0     -63.789 -59.094 -42.801  0.00  0.00    +0.000 C 
ATOM     91  C18 UNK     0     -65.415 -60.840 -42.056  0.00  0.00    +0.000 C 
ENDBRANCH  88  89
ENDBRANCH   9  88
TORSDOF 17
ENDMDL
MODEL 8
REMARK VINA RESULT:      -4.8     51.121     59.159
REMARK  Name = CyclosporineA.pdb
REMARK  40 active torsions:
REMARK  status: ('A' for Active; 'I' for Inactive)
REMARK    1  A    between atoms: C1_1  and  C78_78
REMARK    2  A    between atoms: N7_7  and  C8_8
REMARK    3  A    between atoms: C9_9  and  C15_15
REMARK    4  A    between atoms: N11_11  and  C20_20
REMARK    5  A    between atoms: C12_12  and  C21_21
REMARK    6  A    between atoms: N14_14  and  C23_23
REMARK    7  A    between atoms: C15_15  and  C16_16
REMARK    8  A    between atoms: C16_16  and  C17_17
REMARK    9  A    between atoms: C16_16  and  C18_18
REMARK   10  A    between atoms: C21_21  and  C82_82
REMARK   11  A    between atoms: C24_24  and  C25_25
REMARK   12  A    between atoms: C25_25  and  C30_30
REMARK   13  A    between atoms: C25_25  and  C31_31
REMARK   14  A    between atoms: C26_26  and  O27_27
REMARK   15  A    between atoms: N28_28  and  C29_29
REMARK   16  A    between atoms: C32_32  and  C34_34
REMARK   17  A    between atoms: C34_34  and  C35_35
REMARK   18  A    between atoms: C34_34  and  O40_40
REMARK   19  A    between atoms: C35_35  and  C36_36
REMARK   20  A    between atoms: C35_35  and  C41_41
REMARK   21  A    between atoms: C36_36  and  C37_37
REMARK   22  A    between atoms: C38_38  and  C39_39
REMARK   23  A    between atoms: C44_44  and  C45_45
REMARK   24  A    between atoms: C45_45  and  C46_46
REMARK   25  A    between atoms: N49_49  and  C77_77
REMARK   26  A    between atoms: C53_53  and  C57_57
REMARK   27  A    between atoms: C57_57  and  C58_58
REMARK   28  A    between atoms: C58_58  and  C59_59
REMARK   29  A    between atoms: C58_58  and  C76_76
REMARK   30  A    between atoms: C61_61  and  C62_62
REMARK   31  A    between atoms: C62_62  and  C63_63
REMARK   32  A    between atoms: C62_62  and  C64_64
REMARK   33  A    between atoms: N66_66  and  C68_68
REMARK   34  A    between atoms: C67_67  and  C75_75
REMARK   35  A    between atoms: C73_73  and  C74_74
REMARK   36  A    between atoms: C75_75  and  C79_79
REMARK   37  A    between atoms: C79_79  and  C80_80
REMARK   38  A    between atoms: C79_79  and  C81_81
REMARK   39  A    between atoms: C82_82  and  C83_83
REMARK   40  A    between atoms: C82_82  and  C84_84
REMARK                            x       y       z     vdW  Elec       q    Type
REMARK                         _______ _______ _______ _____ _____    ______ ____
ROOT
ATOM      1  C1  UNK     0     -47.881 -59.131 -82.809  0.00  0.00    +0.000 C 
ATOM      2  C2  UNK     0     -47.990 -60.465 -82.021  0.00  0.00    +0.000 C 
ATOM      3  N3  UNK     0     -47.556 -58.108 -81.827  0.00  0.00    +0.000 N 
ATOM      4  C4  UNK     0     -46.890 -56.946 -82.133  0.00  0.00    +0.000 C 
ATOM      5  O5  UNK     0     -46.432 -56.713 -83.250  0.00  0.00    +0.000 OA
ATOM      6  C6  UNK     0     -49.216 -60.954 -81.747  0.00  0.00    +0.000 C 
ATOM      7  N7  UNK     0     -46.781 -61.099 -81.591  0.00  0.00    +0.000 N 
ATOM      8  C8  UNK     0     -45.463 -60.565 -81.984  0.00  0.00    +0.000 C 
ATOM      9  C9  UNK     0     -46.769 -62.321 -80.705  0.00  0.00    +0.000 C 
ATOM     10  C10 UNK     0     -46.895 -61.923 -79.191  0.00  0.00    +0.000 C 
ATOM     11  N11 UNK     0     -47.617 -62.788 -78.311  0.00  0.00    +0.000 N 
ATOM     12  C12 UNK     0     -48.233 -62.311 -77.029  0.00  0.00    +0.000 C 
ATOM     13  C13 UNK     0     -47.461 -62.870 -75.788  0.00  0.00    +0.000 C 
ATOM     14  N14 UNK     0     -48.185 -63.005 -74.572  0.00  0.00    +0.000 N 
ATOM     15  C19 UNK     0     -46.339 -60.773 -78.755  0.00  0.00    +0.000 C 
ATOM     16  C20 UNK     0     -47.897 -64.191 -78.648  0.00  0.00    +0.000 C 
ATOM     17  C22 UNK     0     -46.178 -63.273 -75.868  0.00  0.00    +0.000 C 
ATOM     18  C23 UNK     0     -48.489 -64.431 -74.246  0.00  0.00    +0.000 C 
ATOM     19  C24 UNK     0     -47.766 -62.200 -73.334  0.00  0.00    +0.000 C 
ATOM     20  C26 UNK     0     -48.868 -62.388 -72.185  0.00  0.00    +0.000 C 
ATOM     21  N28 UNK     0     -48.671 -61.519 -71.022  0.00  0.00    +0.000 NA
ATOM     22  C29 UNK     0     -47.702 -62.104 -70.089  0.00  0.00    +0.000 C 
ATOM     23  C32 UNK     0     -49.923 -61.062 -70.335  0.00  0.00    +0.000 C 
ATOM     24  C33 UNK     0     -49.517 -59.809 -69.512  0.00  0.00    +0.000 C 
ATOM     25  O42 UNK     0     -49.548 -59.744 -68.288  0.00  0.00    +0.000 OA
ATOM     26  N43 UNK     0     -49.072 -58.787 -70.331  0.00  0.00    +0.000 N 
ATOM     27  C44 UNK     0     -48.633 -57.500 -69.833  0.00  0.00    +0.000 C 
ATOM     28  C47 UNK     0     -49.875 -56.643 -69.483  0.00  0.00    +0.000 C 
ATOM     29  C48 UNK     0     -49.955 -56.235 -68.200  0.00  0.00    +0.000 C 
ATOM     30  N49 UNK     0     -50.875 -56.313 -70.436  0.00  0.00    +0.000 N 
ATOM     31  C50 UNK     0     -50.928 -56.792 -71.846  0.00  0.00    +0.000 C 
ATOM     32  C51 UNK     0     -50.882 -55.621 -72.845  0.00  0.00    +0.000 C 
ATOM     33  N52 UNK     0     -50.230 -54.506 -72.362  0.00  0.00    +0.000 N 
ATOM     34  C53 UNK     0     -49.846 -53.402 -73.230  0.00  0.00    +0.000 C 
ATOM     35  C54 UNK     0     -48.585 -53.826 -74.027  0.00  0.00    +0.000 C 
ATOM     36  N55 UNK     0     -48.374 -53.084 -75.174  0.00  0.00    +0.000 N 
ATOM     37  O56 UNK     0     -51.341 -55.689 -73.982  0.00  0.00    +0.000 OA
ATOM     38  O60 UNK     0     -47.821 -54.705 -73.637  0.00  0.00    +0.000 OA
ATOM     39  C61 UNK     0     -47.329 -53.384 -76.164  0.00  0.00    +0.000 C 
ATOM     40  C65 UNK     0     -47.840 -54.563 -77.044  0.00  0.00    +0.000 C 
ATOM     41  N66 UNK     0     -49.006 -54.353 -77.806  0.00  0.00    +0.000 N 
ATOM     42  C67 UNK     0     -49.520 -55.532 -78.566  0.00  0.00    +0.000 C 
ATOM     43  C68 UNK     0     -49.353 -53.031 -78.329  0.00  0.00    +0.000 C 
ATOM     44  O69 UNK     0     -47.244 -55.644 -77.099  0.00  0.00    +0.000 OA
ATOM     45  C70 UNK     0     -48.752 -55.579 -79.909  0.00  0.00    +0.000 C 
ATOM     46  N71 UNK     0     -47.525 -56.212 -79.825  0.00  0.00    +0.000 N 
ATOM     47  O72 UNK     0     -49.141 -55.012 -80.927  0.00  0.00    +0.000 OA
ATOM     48  C73 UNK     0     -46.549 -56.070 -80.909  0.00  0.00    +0.000 C 
ATOM     49  C74 UNK     0     -45.163 -56.465 -80.411  0.00  0.00    +0.000 C 
ATOM     50  C77 UNK     0     -52.140 -55.676 -70.019  0.00  0.00    +0.000 C 
ATOM     51  C78 UNK     0     -49.101 -58.701 -83.633  0.00  0.00    +0.000 C 
ATOM     52  H2  UNK     0     -47.881 -58.238 -80.876  0.00  0.00    +0.000 HD
ATOM     53  H58 UNK     0     -48.832 -59.055 -71.276  0.00  0.00    +0.000 HD
ATOM     54  H69 UNK     0     -49.711 -54.668 -71.502  0.00  0.00    +0.000 HD
ATOM     55  H71 UNK     0     -49.184 -52.593 -75.524  0.00  0.00    +0.000 HD
ATOM     56  H90 UNK     0     -47.165 -56.321 -78.875  0.00  0.00    +0.000 HD
ENDROOT
BRANCH  39  57
ATOM     57  C62 UNK     0     -45.902 -53.595 -75.591  0.00  0.00    +0.000 C 
ATOM     58  C63 UNK     0     -44.873 -53.727 -76.725  0.00  0.00    +0.000 C 
ATOM     59  C64 UNK     0     -45.471 -52.430 -74.689  0.00  0.00    +0.000 C 
ENDBRANCH  39  57
BRANCH  19  60
ATOM     60  C25 UNK     0     -47.513 -60.668 -73.594  0.00  0.00    +0.000 C 
ATOM     61  C30 UNK     0     -46.105 -60.323 -74.086  0.00  0.00    +0.000 C 
ATOM     62  C31 UNK     0     -48.568 -59.955 -74.444  0.00  0.00    +0.000 C 
ENDBRANCH  19  60
BRANCH  20  63
ATOM     63  O27 UNK     0     -50.172 -62.215 -72.754  0.00  0.00    +0.000 OA
ATOM     64  H34 UNK     0     -50.112 -61.363 -73.235  0.00  0.00    +0.000 HD
ENDBRANCH  20  63
BRANCH  27  65
ATOM     65  C45 UNK     0     -47.643 -56.831 -70.803  0.00  0.00    +0.000 C 
ATOM     66  C46 UNK     0     -46.186 -57.007 -70.394  0.00  0.00    +0.000 C 
ENDBRANCH  27  65
BRANCH  23  67
ATOM     67  C34 UNK     0     -50.707 -62.103 -69.476  0.00  0.00    +0.000 C 
BRANCH  67  68
ATOM     68  C35 UNK     0     -52.261 -61.966 -69.527  0.00  0.00    +0.000 C 
ATOM     69  C41 UNK     0     -52.853 -61.947 -70.939  0.00  0.00    +0.000 C 
BRANCH  68  70
ATOM     70  C36 UNK     0     -52.691 -60.698 -68.741  0.00  0.00    +0.000 C 
BRANCH  70  71
ATOM     71  C37 UNK     0     -53.874 -59.987 -69.343  0.00  0.00    +0.000 C 
ATOM     72  C38 UNK     0     -53.932 -58.660 -69.534  0.00  0.00    +0.000 C 
ATOM     73  C39 UNK     0     -55.107 -57.951 -70.122  0.00  0.00    +0.000 C 
ENDBRANCH  70  71
ENDBRANCH  68  70
ENDBRANCH  67  68
BRANCH  67  74
ATOM     74  O40 UNK     0     -50.414 -63.439 -69.945  0.00  0.00    +0.000 OA
ATOM     75  H54 UNK     0     -51.158 -63.678 -70.533  0.00  0.00    +0.000 HD
ENDBRANCH  67  74
ENDBRANCH  23  67
BRANCH  34  76
ATOM     76  C57 UNK     0     -49.579 -52.157 -72.368  0.00  0.00    +0.000 C 
BRANCH  76  77
ATOM     77  C58 UNK     0     -50.359 -50.881 -72.741  0.00  0.00    +0.000 C 
ATOM     78  C59 UNK     0     -49.533 -49.915 -73.590  0.00  0.00    +0.000 C 
ATOM     79  C76 UNK     0     -51.637 -51.265 -73.497  0.00  0.00    +0.000 C 
ENDBRANCH  76  77
ENDBRANCH  34  76
BRANCH  12  80
ATOM     80  C21 UNK     0     -49.759 -62.615 -76.982  0.00  0.00    +0.000 C 
BRANCH  80  81
ATOM     81  C82 UNK     0     -50.650 -61.474 -76.453  0.00  0.00    +0.000 C 
ATOM     82  C83 UNK     0     -51.866 -61.989 -75.685  0.00  0.00    +0.000 C 
ATOM     83  C84 UNK     0     -51.116 -60.600 -77.622  0.00  0.00    +0.000 C 
ENDBRANCH  80  81
ENDBRANCH  12  80
BRANCH  42  84
ATOM     84  C75 UNK     0     -51.050 -55.478 -78.754  0.00  0.00    +0.000 C 
BRANCH  84  85
ATOM     85  C79 UNK     0     -51.737 -56.858 -78.817  0.00  0.00    +0.000 C 
ATOM     86  C80 UNK     0     -51.117 -57.790 -79.857  0.00  0.00    +0.000 C 
ATOM     87  C81 UNK     0     -53.228 -56.676 -79.122  0.00  0.00    +0.000 C 
ENDBRANCH  84  85
ENDBRANCH  42  84
BRANCH   9  88
ATOM     88  C15 UNK     0     -45.587 -63.299 -80.966  0.00  0.00    +0.000 C 
BRANCH  88  89
ATOM     89  C16 UNK     0     -45.943 -64.469 -81.915  0.00  0.00    +0.000 C 
ATOM     90  C17 UNK     0     -45.645 -65.840 -81.313  0.00  0.00    +0.000 C 
ATOM     91  C18 UNK     0     -47.422 -64.388 -82.302  0.00  0.00    +0.000 C 
ENDBRANCH  88  89
ENDBRANCH   9  88
TORSDOF 17
ENDMDL
MODEL 9
REMARK VINA RESULT:      -4.7     51.141     60.656
REMARK  Name = CyclosporineA.pdb
REMARK  40 active torsions:
REMARK  status: ('A' for Active; 'I' for Inactive)
REMARK    1  A    between atoms: C1_1  and  C78_78
REMARK    2  A    between atoms: N7_7  and  C8_8
REMARK    3  A    between atoms: C9_9  and  C15_15
REMARK    4  A    between atoms: N11_11  and  C20_20
REMARK    5  A    between atoms: C12_12  and  C21_21
REMARK    6  A    between atoms: N14_14  and  C23_23
REMARK    7  A    between atoms: C15_15  and  C16_16
REMARK    8  A    between atoms: C16_16  and  C17_17
REMARK    9  A    between atoms: C16_16  and  C18_18
REMARK   10  A    between atoms: C21_21  and  C82_82
REMARK   11  A    between atoms: C24_24  and  C25_25
REMARK   12  A    between atoms: C25_25  and  C30_30
REMARK   13  A    between atoms: C25_25  and  C31_31
REMARK   14  A    between atoms: C26_26  and  O27_27
REMARK   15  A    between atoms: N28_28  and  C29_29
REMARK   16  A    between atoms: C32_32  and  C34_34
REMARK   17  A    between atoms: C34_34  and  C35_35
REMARK   18  A    between atoms: C34_34  and  O40_40
REMARK   19  A    between atoms: C35_35  and  C36_36
REMARK   20  A    between atoms: C35_35  and  C41_41
REMARK   21  A    between atoms: C36_36  and  C37_37
REMARK   22  A    between atoms: C38_38  and  C39_39
REMARK   23  A    between atoms: C44_44  and  C45_45
REMARK   24  A    between atoms: C45_45  and  C46_46
REMARK   25  A    between atoms: N49_49  and  C77_77
REMARK   26  A    between atoms: C53_53  and  C57_57
REMARK   27  A    between atoms: C57_57  and  C58_58
REMARK   28  A    between atoms: C58_58  and  C59_59
REMARK   29  A    between atoms: C58_58  and  C76_76
REMARK   30  A    between atoms: C61_61  and  C62_62
REMARK   31  A    between atoms: C62_62  and  C63_63
REMARK   32  A    between atoms: C62_62  and  C64_64
REMARK   33  A    between atoms: N66_66  and  C68_68
REMARK   34  A    between atoms: C67_67  and  C75_75
REMARK   35  A    between atoms: C73_73  and  C74_74
REMARK   36  A    between atoms: C75_75  and  C79_79
REMARK   37  A    between atoms: C79_79  and  C80_80
REMARK   38  A    between atoms: C79_79  and  C81_81
REMARK   39  A    between atoms: C82_82  and  C83_83
REMARK   40  A    between atoms: C82_82  and  C84_84
REMARK                            x       y       z     vdW  Elec       q    Type
REMARK                         _______ _______ _______ _____ _____    ______ ____
ROOT
ATOM      1  C1  UNK     0     -48.250 -58.076 -84.450  0.00  0.00    +0.000 C 
ATOM      2  C2  UNK     0     -48.281 -59.101 -83.282  0.00  0.00    +0.000 C 
ATOM      3  N3  UNK     0     -47.876 -56.802 -83.857  0.00  0.00    +0.000 N 
ATOM      4  C4  UNK     0     -47.254 -55.794 -84.554  0.00  0.00    +0.000 C 
ATOM      5  O5  UNK     0     -46.877 -55.920 -85.717  0.00  0.00    +0.000 OA
ATOM      6  C6  UNK     0     -49.478 -59.475 -82.785  0.00  0.00    +0.000 C 
ATOM      7  N7  UNK     0     -47.035 -59.576 -82.764  0.00  0.00    +0.000 N 
ATOM      8  C8  UNK     0     -45.757 -59.196 -83.394  0.00  0.00    +0.000 C 
ATOM      9  C9  UNK     0     -46.942 -60.464 -81.547  0.00  0.00    +0.000 C 
ATOM     10  C10 UNK     0     -46.971 -59.616 -80.225  0.00  0.00    +0.000 C 
ATOM     11  N11 UNK     0     -47.616 -60.163 -79.072  0.00  0.00    +0.000 N 
ATOM     12  C12 UNK     0     -48.151 -59.310 -77.960  0.00  0.00    +0.000 C 
ATOM     13  C13 UNK     0     -47.287 -59.461 -76.665  0.00  0.00    +0.000 C 
ATOM     14  N14 UNK     0     -47.923 -59.209 -75.419  0.00  0.00    +0.000 N 
ATOM     15  C19 UNK     0     -46.407 -58.390 -80.206  0.00  0.00    +0.000 C 
ATOM     16  C20 UNK     0     -47.894 -61.600 -78.938  0.00  0.00    +0.000 C 
ATOM     17  C22 UNK     0     -46.005 -59.875 -76.706  0.00  0.00    +0.000 C 
ATOM     18  C23 UNK     0     -48.180 -60.462 -74.647  0.00  0.00    +0.000 C 
ATOM     19  C24 UNK     0     -47.435 -58.063 -74.523  0.00  0.00    +0.000 C 
ATOM     20  C26 UNK     0     -48.452 -57.880 -73.297  0.00  0.00    +0.000 C 
ATOM     21  N28 UNK     0     -48.192 -56.695 -72.477  0.00  0.00    +0.000 NA
ATOM     22  C29 UNK     0     -47.152 -56.967 -71.480  0.00  0.00    +0.000 C 
ATOM     23  C32 UNK     0     -49.402 -56.042 -71.878  0.00  0.00    +0.000 C 
ATOM     24  C33 UNK     0     -48.962 -54.598 -71.514  0.00  0.00    +0.000 C 
ATOM     25  O42 UNK     0     -48.911 -54.157 -70.371  0.00  0.00    +0.000 OA
ATOM     26  N43 UNK     0     -48.592 -53.882 -72.638  0.00  0.00    +0.000 N 
ATOM     27  C44 UNK     0     -48.142 -52.506 -72.595  0.00  0.00    +0.000 C 
ATOM     28  C47 UNK     0     -49.372 -51.577 -72.440  0.00  0.00    +0.000 C 
ATOM     29  C48 UNK     0     -49.372 -50.791 -71.343  0.00  0.00    +0.000 C 
ATOM     30  N49 UNK     0     -50.440 -51.554 -73.375  0.00  0.00    +0.000 N 
ATOM     31  C50 UNK     0     -50.582 -52.445 -74.561  0.00  0.00    +0.000 C 
ATOM     32  C51 UNK     0     -50.624 -51.641 -75.873  0.00  0.00    +0.000 C 
ATOM     33  N52 UNK     0     -49.961 -50.434 -75.806  0.00  0.00    +0.000 N 
ATOM     34  C53 UNK     0     -49.656 -49.655 -76.997  0.00  0.00    +0.000 C 
ATOM     35  C54 UNK     0     -48.445 -50.311 -77.710  0.00  0.00    +0.000 C 
ATOM     36  N55 UNK     0     -48.325 -49.961 -79.042  0.00  0.00    +0.000 N 
ATOM     37  O56 UNK     0     -51.158 -52.056 -76.899  0.00  0.00    +0.000 OA
ATOM     38  O60 UNK     0     -47.640 -51.029 -77.123  0.00  0.00    +0.000 OA
ATOM     39  C61 UNK     0     -47.346 -50.557 -79.963  0.00  0.00    +0.000 C 
ATOM     40  C65 UNK     0     -47.895 -51.949 -80.397  0.00  0.00    +0.000 C 
ATOM     41  N66 UNK     0     -49.114 -51.980 -81.103  0.00  0.00    +0.000 N 
ATOM     42  C67 UNK     0     -49.657 -53.333 -81.423  0.00  0.00    +0.000 C 
ATOM     43  C68 UNK     0     -49.519 -50.883 -81.983  0.00  0.00    +0.000 C 
ATOM     44  O69 UNK     0     -47.285 -52.996 -80.157  0.00  0.00    +0.000 OA
ATOM     45  C70 UNK     0     -48.983 -53.798 -82.736  0.00  0.00    +0.000 C 
ATOM     46  N71 UNK     0     -47.742 -54.380 -82.547  0.00  0.00    +0.000 N 
ATOM     47  O72 UNK     0     -49.450 -53.572 -83.849  0.00  0.00    +0.000 OA
ATOM     48  C73 UNK     0     -46.845 -54.584 -83.687  0.00  0.00    +0.000 C 
ATOM     49  C74 UNK     0     -45.421 -54.812 -83.191  0.00  0.00    +0.000 C 
ATOM     50  C77 UNK     0     -51.685 -50.813 -73.088  0.00  0.00    +0.000 C 
ATOM     51  C78 UNK     0     -49.531 -57.917 -85.279  0.00  0.00    +0.000 C 
ATOM     52  H2  UNK     0     -48.133 -56.629 -82.893  0.00  0.00    +0.000 HD
ATOM     53  H58 UNK     0     -48.412 -54.431 -73.468  0.00  0.00    +0.000 HD
ATOM     54  H69 UNK     0     -49.381 -50.325 -74.977  0.00  0.00    +0.000 HD
ATOM     55  H71 UNK     0     -49.166 -49.598 -79.469  0.00  0.00    +0.000 HD
ATOM     56  H90 UNK     0     -47.316 -54.190 -81.637  0.00  0.00    +0.000 HD
ENDROOT
BRANCH  39  57
ATOM     57  C62 UNK     0     -45.880 -50.587 -79.454  0.00  0.00    +0.000 C 
ATOM     58  C63 UNK     0     -44.925 -51.049 -80.567  0.00  0.00    +0.000 C 
ATOM     59  C64 UNK     0     -45.414 -49.207 -78.970  0.00  0.00    +0.000 C 
ENDBRANCH  39  57
BRANCH  19  60
ATOM     60  C25 UNK     0     -47.227 -56.687 -75.261  0.00  0.00    +0.000 C 
ATOM     61  C30 UNK     0     -48.519 -55.942 -75.608  0.00  0.00    +0.000 C 
ATOM     62  C31 UNK     0     -46.213 -55.736 -74.621  0.00  0.00    +0.000 C 
ENDBRANCH  19  60
BRANCH  20  63
ATOM     63  O27 UNK     0     -49.795 -57.886 -73.799  0.00  0.00    +0.000 OA
ATOM     64  H34 UNK     0     -49.968 -58.828 -74.010  0.00  0.00    +0.000 HD
ENDBRANCH  20  63
BRANCH  27  65
ATOM     65  C45 UNK     0     -47.232 -52.175 -73.790  0.00  0.00    +0.000 C 
ATOM     66  C46 UNK     0     -45.958 -51.441 -73.394  0.00  0.00    +0.000 C 
ENDBRANCH  27  65
BRANCH  23  67
ATOM     67  C34 UNK     0     -50.107 -56.763 -70.687  0.00  0.00    +0.000 C 
BRANCH  67  68
ATOM     68  C35 UNK     0     -51.486 -56.160 -70.273  0.00  0.00    +0.000 C 
ATOM     69  C41 UNK     0     -51.586 -55.756 -68.799  0.00  0.00    +0.000 C 
BRANCH  68  70
ATOM     70  C36 UNK     0     -52.615 -57.160 -70.639  0.00  0.00    +0.000 C 
BRANCH  70  71
ATOM     71  C37 UNK     0     -53.655 -57.319 -69.561  0.00  0.00    +0.000 C 
ATOM     72  C38 UNK     0     -54.974 -57.200 -69.770  0.00  0.00    +0.000 C 
ATOM     73  C39 UNK     0     -56.007 -57.348 -68.701  0.00  0.00    +0.000 C 
ENDBRANCH  70  71
ENDBRANCH  68  70
ENDBRANCH  67  68
BRANCH  67  74
ATOM     74  O40 UNK     0     -50.369 -58.140 -71.039  0.00  0.00    +0.000 OA
ATOM     75  H54 UNK     0     -49.488 -58.560 -71.120  0.00  0.00    +0.000 HD
ENDBRANCH  67  74
ENDBRANCH  23  67
BRANCH  34  76
ATOM     76  C57 UNK     0     -49.352 -48.206 -76.583  0.00  0.00    +0.000 C 
BRANCH  76  77
ATOM     77  C58 UNK     0     -48.865 -47.991 -75.136  0.00  0.00    +0.000 C 
ATOM     78  C59 UNK     0     -47.340 -48.012 -75.021  0.00  0.00    +0.000 C 
ATOM     79  C76 UNK     0     -49.401 -46.654 -74.609  0.00  0.00    +0.000 C 
ENDBRANCH  76  77
ENDBRANCH  34  76
BRANCH  12  80
ATOM     80  C21 UNK     0     -49.665 -59.577 -77.715  0.00  0.00    +0.000 C 
BRANCH  80  81
ATOM     81  C82 UNK     0     -50.593 -59.305 -78.916  0.00  0.00    +0.000 C 
ATOM     82  C83 UNK     0     -50.374 -57.920 -79.521  0.00  0.00    +0.000 C 
ATOM     83  C84 UNK     0     -52.055 -59.448 -78.479  0.00  0.00    +0.000 C 
ENDBRANCH  80  81
ENDBRANCH  12  80
BRANCH  42  84
ATOM     84  C75 UNK     0     -51.198 -53.333 -81.511  0.00  0.00    +0.000 C 
BRANCH  84  85
ATOM     85  C79 UNK     0     -51.911 -53.895 -80.263  0.00  0.00    +0.000 C 
ATOM     86  C80 UNK     0     -50.948 -54.510 -79.249  0.00  0.00    +0.000 C 
ATOM     87  C81 UNK     0     -52.940 -54.947 -80.690  0.00  0.00    +0.000 C 
ENDBRANCH  84  85
ENDBRANCH  42  84
BRANCH   9  88
ATOM     88  C15 UNK     0     -45.763 -61.480 -81.575  0.00  0.00    +0.000 C 
BRANCH  88  89
ATOM     89  C16 UNK     0     -46.136 -62.850 -82.191  0.00  0.00    +0.000 C 
ATOM     90  C17 UNK     0     -47.632 -63.147 -82.132  0.00  0.00    +0.000 C 
ATOM     91  C18 UNK     0     -45.657 -62.911 -83.645  0.00  0.00    +0.000 C 
ENDBRANCH  88  89
ENDBRANCH   9  88
TORSDOF 17
ENDMDL
