MODEL 1
REMARK VINA RESULT:      -6.7      0.000      0.000
REMARK  Name = Danazol.pdbqt.pdb
REMARK  2 active torsions:
REMARK  status: ('A' for Active; 'I' for Inactive)
REMARK    1  A    between atoms: C_9  and  O_23
REMARK    2  A    between atoms: C_9  and  C_25
REMARK                            x       y       z     vdW  Elec       q    Type
REMARK                         _______ _______ _______ _____ _____    ______ ____
ROOT
ATOM      1  O   UNL     1     -62.090 -47.102 -61.045  0.00  0.00    +0.000 OA
ATOM      2  N   UNL     1     -60.874 -46.737 -60.429  0.00  0.00    +0.000 NA
ATOM      3  C   UNL     1     -67.200 -48.696 -55.633  0.00  0.00    +0.000 C 
ATOM      4  C   UNL     1     -66.814 -48.311 -54.111  0.00  0.00    +0.000 C 
ATOM      5  C   UNL     1     -66.640 -47.992 -56.803  0.00  0.00    +0.000 C 
ATOM      6  C   UNL     1     -65.550 -46.955 -56.778  0.00  0.00    +0.000 C 
ATOM      7  C   UNL     1     -65.094 -46.149 -58.018  0.00  0.00    +0.000 C 
ATOM      8  C   UNL     1     -65.671 -47.393 -54.230  0.00  0.00    +0.000 C 
ATOM      9  C   UNL     1     -66.504 -49.754 -53.413  0.00  0.00    +0.000 C 
ATOM     10  C   UNL     1     -65.080 -46.739 -55.454  0.00  0.00    +0.000 C 
ATOM     11  C   UNL     1     -67.549 -50.075 -55.692  0.00  0.00    +0.000 C 
ATOM     12  C   UNL     1     -67.019 -48.341 -58.119  0.00  0.00    +0.000 C 
ATOM     13  C   UNL     1     -67.157 -50.670 -54.372  0.00  0.00    +0.000 C 
ATOM     14  C   UNL     1     -65.461 -46.847 -59.478  0.00  0.00    +0.000 C 
ATOM     15  C   UNL     1     -68.069 -47.566 -53.525  0.00  0.00    +0.000 C 
ATOM     16  C   UNL     1     -66.484 -47.825 -59.422  0.00  0.00    +0.000 C 
ATOM     17  C   UNL     1     -63.591 -46.043 -58.039  0.00  0.00    +0.000 C 
ATOM     18  C   UNL     1     -65.767 -44.747 -57.998  0.00  0.00    +0.000 C 
ATOM     19  C   UNL     1     -64.458 -47.044 -60.305  0.00  0.00    +0.000 C 
ATOM     20  C   UNL     1     -62.576 -46.325 -58.999  0.00  0.00    +0.000 A 
ATOM     21  C   UNL     1     -63.066 -46.837 -60.169  0.00  0.00    +0.000 A 
ATOM     22  C   UNL     1     -61.201 -46.269 -59.205  0.00  0.00    +0.000 A 
ENDROOT
BRANCH   9  23
ATOM     23  O   UNL     1     -67.091 -49.936 -52.115  0.00  0.00    +0.000 OA
ATOM     24  H   UNL     1     -66.556 -50.595 -51.640  0.00  0.00    +0.000 HD
ENDBRANCH   9  23
BRANCH   9  25
ATOM     25  C   UNL     1     -65.045 -50.011 -53.334  0.00  0.00    +0.000 C 
ATOM     26  C   UNL     1     -63.873 -50.239 -53.287  0.00  0.00    +0.000 C 
ENDBRANCH   9  25
TORSDOF 2
ENDMDL
MODEL 2
REMARK VINA RESULT:      -6.6     29.594     32.767
REMARK  Name = Danazol.pdbqt.pdb
REMARK  2 active torsions:
REMARK  status: ('A' for Active; 'I' for Inactive)
REMARK    1  A    between atoms: C_9  and  O_23
REMARK    2  A    between atoms: C_9  and  C_25
REMARK                            x       y       z     vdW  Elec       q    Type
REMARK                         _______ _______ _______ _____ _____    ______ ____
ROOT
ATOM      1  O   UNL     1     -48.918 -68.721 -81.290  0.00  0.00    +0.000 OA
ATOM      2  N   UNL     1     -48.960 -69.422 -80.067  0.00  0.00    +0.000 NA
ATOM      3  C   UNL     1     -48.824 -61.250 -79.835  0.00  0.00    +0.000 C 
ATOM      4  C   UNL     1     -48.587 -60.795 -78.301  0.00  0.00    +0.000 C 
ATOM      5  C   UNL     1     -48.331 -62.532 -80.374  0.00  0.00    +0.000 C 
ATOM      6  C   UNL     1     -47.694 -63.643 -79.585  0.00  0.00    +0.000 C 
ATOM      7  C   UNL     1     -47.070 -64.908 -80.219  0.00  0.00    +0.000 C 
ATOM      8  C   UNL     1     -48.079 -61.998 -77.623  0.00  0.00    +0.000 C 
ATOM      9  C   UNL     1     -50.056 -60.269 -77.821  0.00  0.00    +0.000 C 
ATOM     10  C   UNL     1     -47.643 -63.321 -78.201  0.00  0.00    +0.000 C 
ATOM     11  C   UNL     1     -50.021 -60.651 -80.319  0.00  0.00    +0.000 C 
ATOM     12  C   UNL     1     -48.538 -62.885 -81.727  0.00  0.00    +0.000 C 
ATOM     13  C   UNL     1     -50.714 -60.059 -79.127  0.00  0.00    +0.000 C 
ATOM     14  C   UNL     1     -47.611 -65.261 -81.748  0.00  0.00    +0.000 C 
ATOM     15  C   UNL     1     -47.484 -59.676 -78.351  0.00  0.00    +0.000 C 
ATOM     16  C   UNL     1     -48.214 -64.173 -82.425  0.00  0.00    +0.000 C 
ATOM     17  C   UNL     1     -47.447 -66.126 -79.416  0.00  0.00    +0.000 C 
ATOM     18  C   UNL     1     -45.528 -64.735 -80.307  0.00  0.00    +0.000 C 
ATOM     19  C   UNL     1     -48.114 -66.463 -81.932  0.00  0.00    +0.000 C 
ATOM     20  C   UNL     1     -48.033 -67.389 -79.718  0.00  0.00    +0.000 A 
ATOM     21  C   UNL     1     -48.360 -67.531 -81.039  0.00  0.00    +0.000 A 
ATOM     22  C   UNL     1     -48.416 -68.599 -79.145  0.00  0.00    +0.000 A 
ENDROOT
BRANCH   9  23
ATOM     23  O   UNL     1     -50.046 -59.030 -77.095  0.00  0.00    +0.000 OA
ATOM     24  H   UNL     1     -50.118 -59.243 -76.148  0.00  0.00    +0.000 HD
ENDBRANCH   9  23
BRANCH   9  25
ATOM     25  C   UNL     1     -50.763 -61.301 -77.024  0.00  0.00    +0.000 C 
ATOM     26  C   UNL     1     -51.355 -62.117 -76.381  0.00  0.00    +0.000 C 
ENDBRANCH   9  25
TORSDOF 2
ENDMDL
MODEL 3
REMARK VINA RESULT:      -6.0     11.480     13.364
REMARK  Name = Danazol.pdbqt.pdb
REMARK  2 active torsions:
REMARK  status: ('A' for Active; 'I' for Inactive)
REMARK    1  A    between atoms: C_9  and  O_23
REMARK    2  A    between atoms: C_9  and  C_25
REMARK                            x       y       z     vdW  Elec       q    Type
REMARK                         _______ _______ _______ _____ _____    ______ ____
ROOT
ATOM      1  O   UNL     1     -51.553 -56.104 -59.510  0.00  0.00    +0.000 OA
ATOM      2  N   UNL     1     -51.424 -55.764 -60.874  0.00  0.00    +0.000 NA
ATOM      3  C   UNL     1     -58.935 -57.035 -57.902  0.00  0.00    +0.000 C 
ATOM      4  C   UNL     1     -59.965 -57.085 -59.147  0.00  0.00    +0.000 C 
ATOM      5  C   UNL     1     -57.515 -57.419 -58.023  0.00  0.00    +0.000 C 
ATOM      6  C   UNL     1     -56.790 -57.754 -59.298  0.00  0.00    +0.000 C 
ATOM      7  C   UNL     1     -55.338 -58.283 -59.355  0.00  0.00    +0.000 C 
ATOM      8  C   UNL     1     -59.119 -57.299 -60.331  0.00  0.00    +0.000 C 
ATOM      9  C   UNL     1     -60.738 -55.650 -59.068  0.00  0.00    +0.000 C 
ATOM     10  C   UNL     1     -57.650 -57.628 -60.423  0.00  0.00    +0.000 C 
ATOM     11  C   UNL     1     -59.358 -56.031 -56.985  0.00  0.00    +0.000 C 
ATOM     12  C   UNL     1     -56.649 -57.385 -56.906  0.00  0.00    +0.000 C 
ATOM     13  C   UNL     1     -60.433 -55.248 -57.679  0.00  0.00    +0.000 C 
ATOM     14  C   UNL     1     -54.421 -57.951 -58.011  0.00  0.00    +0.000 C 
ATOM     15  C   UNL     1     -60.889 -58.332 -58.889  0.00  0.00    +0.000 C 
ATOM     16  C   UNL     1     -55.170 -57.629 -56.853  0.00  0.00    +0.000 C 
ATOM     17  C   UNL     1     -54.588 -57.611 -60.475  0.00  0.00    +0.000 C 
ATOM     18  C   UNL     1     -55.357 -59.829 -59.525  0.00  0.00    +0.000 C 
ATOM     19  C   UNL     1     -53.287 -57.317 -58.214  0.00  0.00    +0.000 C 
ATOM     20  C   UNL     1     -53.354 -56.905 -60.579  0.00  0.00    +0.000 A 
ATOM     21  C   UNL     1     -52.701 -56.779 -59.383  0.00  0.00    +0.000 A 
ATOM     22  C   UNL     1     -52.517 -56.265 -61.488  0.00  0.00    +0.000 A 
ENDROOT
BRANCH   9  23
ATOM     23  O   UNL     1     -62.163 -55.720 -59.234  0.00  0.00    +0.000 OA
ATOM     24  H   UNL     1     -62.347 -56.397 -59.909  0.00  0.00    +0.000 HD
ENDBRANCH   9  23
BRANCH   9  25
ATOM     25  C   UNL     1     -60.176 -54.682 -60.042  0.00  0.00    +0.000 C 
ATOM     26  C   UNL     1     -59.734 -53.882 -60.812  0.00  0.00    +0.000 C 
ENDBRANCH   9  25
TORSDOF 2
ENDMDL
MODEL 4
REMARK VINA RESULT:      -5.8     20.891     23.335
REMARK  Name = Danazol.pdbqt.pdb
REMARK  2 active torsions:
REMARK  status: ('A' for Active; 'I' for Inactive)
REMARK    1  A    between atoms: C_9  and  O_23
REMARK    2  A    between atoms: C_9  and  C_25
REMARK                            x       y       z     vdW  Elec       q    Type
REMARK                         _______ _______ _______ _____ _____    ______ ____
ROOT
ATOM      1  O   UNL     1     -63.608 -55.177 -79.658  0.00  0.00    +0.000 OA
ATOM      2  N   UNL     1     -64.767 -54.392 -79.832  0.00  0.00    +0.000 NA
ATOM      3  C   UNL     1     -65.347 -61.197 -75.335  0.00  0.00    +0.000 C 
ATOM      4  C   UNL     1     -66.914 -61.474 -75.044  0.00  0.00    +0.000 C 
ATOM      5  C   UNL     1     -64.871 -60.482 -76.535  0.00  0.00    +0.000 C 
ATOM      6  C   UNL     1     -65.731 -59.790 -77.558  0.00  0.00    +0.000 C 
ATOM      7  C   UNL     1     -65.190 -59.174 -78.870  0.00  0.00    +0.000 C 
ATOM      8  C   UNL     1     -67.633 -60.652 -76.029  0.00  0.00    +0.000 C 
ATOM      9  C   UNL     1     -67.099 -61.044 -73.480  0.00  0.00    +0.000 C 
ATOM     10  C   UNL     1     -67.107 -59.879 -77.212  0.00  0.00    +0.000 C 
ATOM     11  C   UNL     1     -64.649 -61.117 -74.097  0.00  0.00    +0.000 C 
ATOM     12  C   UNL     1     -63.491 -60.279 -76.768  0.00  0.00    +0.000 C 
ATOM     13  C   UNL     1     -65.694 -61.055 -73.022  0.00  0.00    +0.000 C 
ATOM     14  C   UNL     1     -63.569 -58.816 -78.856  0.00  0.00    +0.000 C 
ATOM     15  C   UNL     1     -67.137 -63.004 -75.324  0.00  0.00    +0.000 C 
ATOM     16  C   UNL     1     -62.825 -59.491 -77.857  0.00  0.00    +0.000 C 
ATOM     17  C   UNL     1     -65.848 -57.843 -79.123  0.00  0.00    +0.000 C 
ATOM     18  C   UNL     1     -65.430 -60.165 -80.044  0.00  0.00    +0.000 C 
ATOM     19  C   UNL     1     -63.237 -57.577 -79.146  0.00  0.00    +0.000 C 
ATOM     20  C   UNL     1     -65.381 -56.525 -79.398  0.00  0.00    +0.000 A 
ATOM     21  C   UNL     1     -64.016 -56.427 -79.409  0.00  0.00    +0.000 A 
ATOM     22  C   UNL     1     -65.813 -55.232 -79.676  0.00  0.00    +0.000 A 
ENDROOT
BRANCH   9  23
ATOM     23  O   UNL     1     -67.860 -61.967 -72.686  0.00  0.00    +0.000 OA
ATOM     24  H   UNL     1     -67.707 -62.858 -73.044  0.00  0.00    +0.000 HD
ENDBRANCH   9  23
BRANCH   9  25
ATOM     25  C   UNL     1     -67.690 -59.688 -73.362  0.00  0.00    +0.000 C 
ATOM     26  C   UNL     1     -68.175 -58.602 -73.241  0.00  0.00    +0.000 C 
ENDBRANCH   9  25
TORSDOF 2
ENDMDL
MODEL 5
REMARK VINA RESULT:      -5.6      6.730     10.280
REMARK  Name = Danazol.pdbqt.pdb
REMARK  2 active torsions:
REMARK  status: ('A' for Active; 'I' for Inactive)
REMARK    1  A    between atoms: C_9  and  O_23
REMARK    2  A    between atoms: C_9  and  C_25
REMARK                            x       y       z     vdW  Elec       q    Type
REMARK                         _______ _______ _______ _____ _____    ______ ____
ROOT
ATOM      1  O   UNL     1     -66.150 -51.687 -54.372  0.00  0.00    +0.000 OA
ATOM      2  N   UNL     1     -65.359 -50.540 -54.153  0.00  0.00    +0.000 NA
ATOM      3  C   UNL     1     -63.412 -57.399 -50.151  0.00  0.00    +0.000 C 
ATOM      4  C   UNL     1     -62.296 -57.032 -49.039  0.00  0.00    +0.000 C 
ATOM      5  C   UNL     1     -64.413 -56.427 -50.630  0.00  0.00    +0.000 C 
ATOM      6  C   UNL     1     -64.461 -54.961 -50.295  0.00  0.00    +0.000 C 
ATOM      7  C   UNL     1     -65.611 -54.014 -50.713  0.00  0.00    +0.000 C 
ATOM      8  C   UNL     1     -62.369 -55.570 -48.897  0.00  0.00    +0.000 C 
ATOM      9  C   UNL     1     -60.911 -57.622 -49.671  0.00  0.00    +0.000 C 
ATOM     10  C   UNL     1     -63.374 -54.594 -49.455  0.00  0.00    +0.000 C 
ATOM     11  C   UNL     1     -62.906 -58.425 -50.999  0.00  0.00    +0.000 C 
ATOM     12  C   UNL     1     -65.389 -56.791 -51.586  0.00  0.00    +0.000 C 
ATOM     13  C   UNL     1     -61.446 -58.557 -50.683  0.00  0.00    +0.000 C 
ATOM     14  C   UNL     1     -66.514 -54.540 -52.003  0.00  0.00    +0.000 C 
ATOM     15  C   UNL     1     -62.758 -57.745 -47.716  0.00  0.00    +0.000 C 
ATOM     16  C   UNL     1     -66.407 -55.927 -52.269  0.00  0.00    +0.000 C 
ATOM     17  C   UNL     1     -65.049 -52.698 -51.182  0.00  0.00    +0.000 C 
ATOM     18  C   UNL     1     -66.586 -53.827 -49.517  0.00  0.00    +0.000 C 
ATOM     19  C   UNL     1     -66.617 -53.718 -53.024  0.00  0.00    +0.000 C 
ATOM     20  C   UNL     1     -65.204 -51.896 -52.350  0.00  0.00    +0.000 A 
ATOM     21  C   UNL     1     -66.033 -52.456 -53.283  0.00  0.00    +0.000 A 
ATOM     22  C   UNL     1     -64.810 -50.693 -52.929  0.00  0.00    +0.000 A 
ENDROOT
BRANCH   9  23
ATOM     23  O   UNL     1     -60.087 -58.350 -48.747  0.00  0.00    +0.000 OA
ATOM     24  H   UNL     1     -59.455 -58.875 -49.268  0.00  0.00    +0.000 HD
ENDBRANCH   9  23
BRANCH   9  25
ATOM     25  C   UNL     1     -60.109 -56.547 -50.305  0.00  0.00    +0.000 C 
ATOM     26  C   UNL     1     -59.445 -55.701 -50.826  0.00  0.00    +0.000 C 
ENDBRANCH   9  25
TORSDOF 2
ENDMDL
MODEL 6
REMARK VINA RESULT:      -5.5     12.395     13.848
REMARK  Name = Danazol.pdbqt.pdb
REMARK  2 active torsions:
REMARK  status: ('A' for Active; 'I' for Inactive)
REMARK    1  A    between atoms: C_9  and  O_23
REMARK    2  A    between atoms: C_9  and  C_25
REMARK                            x       y       z     vdW  Elec       q    Type
REMARK                         _______ _______ _______ _____ _____    ______ ____
ROOT
ATOM      1  O   UNL     1     -63.734 -62.361 -64.098  0.00  0.00    +0.000 OA
ATOM      2  N   UNL     1     -64.642 -62.965 -63.203  0.00  0.00    +0.000 NA
ATOM      3  C   UNL     1     -59.619 -57.200 -60.306  0.00  0.00    +0.000 C 
ATOM      4  C   UNL     1     -59.736 -57.197 -58.693  0.00  0.00    +0.000 C 
ATOM      5  C   UNL     1     -59.863 -58.404 -61.123  0.00  0.00    +0.000 C 
ATOM      6  C   UNL     1     -60.387 -59.724 -60.627  0.00  0.00    +0.000 C 
ATOM      7  C   UNL     1     -60.495 -60.997 -61.501  0.00  0.00    +0.000 C 
ATOM      8  C   UNL     1     -60.367 -58.483 -58.357  0.00  0.00    +0.000 C 
ATOM      9  C   UNL     1     -60.616 -55.861 -58.371  0.00  0.00    +0.000 C 
ATOM     10  C   UNL     1     -60.661 -59.674 -59.233  0.00  0.00    +0.000 C 
ATOM     11  C   UNL     1     -59.911 -55.896 -60.798  0.00  0.00    +0.000 C 
ATOM     12  C   UNL     1     -59.728 -58.375 -62.530  0.00  0.00    +0.000 C 
ATOM     13  C   UNL     1     -60.469 -55.121 -59.642  0.00  0.00    +0.000 C 
ATOM     14  C   UNL     1     -60.530 -60.719 -63.137  0.00  0.00    +0.000 C 
ATOM     15  C   UNL     1     -58.259 -57.143 -58.156  0.00  0.00    +0.000 C 
ATOM     16  C   UNL     1     -60.036 -59.451 -63.529  0.00  0.00    +0.000 C 
ATOM     17  C   UNL     1     -61.800 -61.699 -61.229  0.00  0.00    +0.000 C 
ATOM     18  C   UNL     1     -59.277 -61.922 -61.219  0.00  0.00    +0.000 C 
ATOM     19  C   UNL     1     -61.551 -61.219 -63.798  0.00  0.00    +0.000 C 
ATOM     20  C   UNL     1     -62.875 -62.174 -62.036  0.00  0.00    +0.000 A 
ATOM     21  C   UNL     1     -62.706 -61.913 -63.368  0.00  0.00    +0.000 A 
ATOM     22  C   UNL     1     -64.094 -62.842 -61.975  0.00  0.00    +0.000 A 
ENDROOT
BRANCH   9  23
ATOM     23  O   UNL     1     -60.116 -55.052 -57.296  0.00  0.00    +0.000 OA
ATOM     24  H   UNL     1     -60.338 -55.502 -56.461  0.00  0.00    +0.000 HD
ENDBRANCH   9  23
BRANCH   9  25
ATOM     25  C   UNL     1     -62.036 -56.202 -58.111  0.00  0.00    +0.000 C 
ATOM     26  C   UNL     1     -63.185 -56.452 -57.892  0.00  0.00    +0.000 C 
ENDBRANCH   9  25
TORSDOF 2
ENDMDL
MODEL 7
REMARK VINA RESULT:      -5.5     35.047     36.893
REMARK  Name = Danazol.pdbqt.pdb
REMARK  2 active torsions:
REMARK  status: ('A' for Active; 'I' for Inactive)
REMARK    1  A    between atoms: C_9  and  O_23
REMARK    2  A    between atoms: C_9  and  C_25
REMARK                            x       y       z     vdW  Elec       q    Type
REMARK                         _______ _______ _______ _____ _____    ______ ____
ROOT
ATOM      1  O   UNL     1     -60.820 -53.357 -23.536  0.00  0.00    +0.000 OA
ATOM      2  N   UNL     1     -61.204 -54.709 -23.663  0.00  0.00    +0.000 NA
ATOM      3  C   UNL     1     -66.013 -49.712 -19.332  0.00  0.00    +0.000 C 
ATOM      4  C   UNL     1     -67.118 -50.614 -18.569  0.00  0.00    +0.000 C 
ATOM      5  C   UNL     1     -64.676 -50.220 -19.692  0.00  0.00    +0.000 C 
ATOM      6  C   UNL     1     -64.198 -51.640 -19.557  0.00  0.00    +0.000 C 
ATOM      7  C   UNL     1     -62.743 -52.093 -19.821  0.00  0.00    +0.000 C 
ATOM      8  C   UNL     1     -66.583 -51.984 -18.613  0.00  0.00    +0.000 C 
ATOM      9  C   UNL     1     -68.486 -50.352 -19.419  0.00  0.00    +0.000 C 
ATOM     10  C   UNL     1     -65.227 -52.479 -19.050  0.00  0.00    +0.000 C 
ATOM     11  C   UNL     1     -66.677 -48.735 -20.128  0.00  0.00    +0.000 C 
ATOM     12  C   UNL     1     -63.727 -49.394 -20.338  0.00  0.00    +0.000 C 
ATOM     13  C   UNL     1     -68.128 -49.114 -20.144  0.00  0.00    +0.000 C 
ATOM     14  C   UNL     1     -61.857 -51.070 -20.783  0.00  0.00    +0.000 C 
ATOM     15  C   UNL     1     -67.162 -50.080 -17.091  0.00  0.00    +0.000 C 
ATOM     16  C   UNL     1     -62.375 -49.755 -20.877  0.00  0.00    +0.000 C 
ATOM     17  C   UNL     1     -62.737 -53.393 -20.581  0.00  0.00    +0.000 C 
ATOM     18  C   UNL     1     -61.986 -52.217 -18.468  0.00  0.00    +0.000 C 
ATOM     19  C   UNL     1     -61.307 -51.598 -21.855  0.00  0.00    +0.000 C 
ATOM     20  C   UNL     1     -62.120 -53.857 -21.779  0.00  0.00    +0.000 A 
ATOM     21  C   UNL     1     -61.377 -52.897 -22.410  0.00  0.00    +0.000 A 
ATOM     22  C   UNL     1     -61.978 -54.979 -22.590  0.00  0.00    +0.000 A 
ENDROOT
BRANCH   9  23
ATOM     23  O   UNL     1     -69.655 -50.108 -18.621  0.00  0.00    +0.000 OA
ATOM     24  H   UNL     1     -70.367 -49.824 -19.221  0.00  0.00    +0.000 HD
ENDBRANCH   9  23
BRANCH   9  25
ATOM     25  C   UNL     1     -68.757 -51.466 -20.361  0.00  0.00    +0.000 C 
ATOM     26  C   UNL     1     -69.001 -52.360 -21.115  0.00  0.00    +0.000 C 
ENDBRANCH   9  25
TORSDOF 2
ENDMDL
MODEL 8
REMARK VINA RESULT:      -5.3     21.737     24.644
REMARK  Name = Danazol.pdbqt.pdb
REMARK  2 active torsions:
REMARK  status: ('A' for Active; 'I' for Inactive)
REMARK    1  A    between atoms: C_9  and  O_23
REMARK    2  A    between atoms: C_9  and  C_25
REMARK                            x       y       z     vdW  Elec       q    Type
REMARK                         _______ _______ _______ _____ _____    ______ ____
ROOT
ATOM      1  O   UNL     1     -63.114 -47.824 -37.049  0.00  0.00    +0.000 OA
ATOM      2  N   UNL     1     -62.057 -46.892 -36.984  0.00  0.00    +0.000 NA
ATOM      3  C   UNL     1     -66.613 -48.044 -30.292  0.00  0.00    +0.000 C 
ATOM      4  C   UNL     1     -66.224 -46.900 -29.217  0.00  0.00    +0.000 C 
ATOM      5  C   UNL     1     -66.491 -47.846 -31.750  0.00  0.00    +0.000 C 
ATOM      6  C   UNL     1     -65.867 -46.663 -32.437  0.00  0.00    +0.000 C 
ATOM      7  C   UNL     1     -65.888 -46.441 -33.968  0.00  0.00    +0.000 C 
ATOM      8  C   UNL     1     -65.523 -45.869 -29.998  0.00  0.00    +0.000 C 
ATOM      9  C   UNL     1     -65.324 -47.697 -28.113  0.00  0.00    +0.000 C 
ATOM     10  C   UNL     1     -65.361 -45.730 -31.491  0.00  0.00    +0.000 C 
ATOM     11  C   UNL     1     -66.431 -49.325 -29.698  0.00  0.00    +0.000 C 
ATOM     12  C   UNL     1     -66.863 -48.861 -32.661  0.00  0.00    +0.000 C 
ATOM     13  C   UNL     1     -65.698 -49.096 -28.410  0.00  0.00    +0.000 C 
ATOM     14  C   UNL     1     -66.136 -47.813 -34.869  0.00  0.00    +0.000 C 
ATOM     15  C   UNL     1     -67.589 -46.350 -28.664  0.00  0.00    +0.000 C 
ATOM     16  C   UNL     1     -66.711 -48.891 -34.152  0.00  0.00    +0.000 C 
ATOM     17  C   UNL     1     -64.544 -45.945 -34.435  0.00  0.00    +0.000 C 
ATOM     18  C   UNL     1     -67.024 -45.443 -34.331  0.00  0.00    +0.000 C 
ATOM     19  C   UNL     1     -65.234 -48.087 -35.785  0.00  0.00    +0.000 C 
ATOM     20  C   UNL     1     -63.614 -46.348 -35.437  0.00  0.00    +0.000 A 
ATOM     21  C   UNL     1     -64.011 -47.463 -36.124  0.00  0.00    +0.000 A 
ATOM     22  C   UNL     1     -62.391 -46.016 -36.011  0.00  0.00    +0.000 A 
ENDROOT
BRANCH   9  23
ATOM     23  O   UNL     1     -65.649 -47.404 -26.745  0.00  0.00    +0.000 OA
ATOM     24  H   UNL     1     -64.868 -46.989 -26.339  0.00  0.00    +0.000 HD
ENDBRANCH   9  23
BRANCH   9  25
ATOM     25  C   UNL     1     -63.875 -47.470 -28.334  0.00  0.00    +0.000 C 
ATOM     26  C   UNL     1     -62.709 -47.265 -28.497  0.00  0.00    +0.000 C 
ENDBRANCH   9  25
TORSDOF 2
ENDMDL
MODEL 9
REMARK VINA RESULT:      -5.3     28.158     32.098
REMARK  Name = Danazol.pdbqt.pdb
REMARK  2 active torsions:
REMARK  status: ('A' for Active; 'I' for Inactive)
REMARK    1  A    between atoms: C_9  and  O_23
REMARK    2  A    between atoms: C_9  and  C_25
REMARK                            x       y       z     vdW  Elec       q    Type
REMARK                         _______ _______ _______ _____ _____    ______ ____
ROOT
ATOM      1  O   UNL     1     -57.690 -56.482 -31.610  0.00  0.00    +0.000 OA
ATOM      2  N   UNL     1     -58.933 -56.308 -32.253  0.00  0.00    +0.000 NA
ATOM      3  C   UNL     1     -58.515 -54.913 -24.207  0.00  0.00    +0.000 C 
ATOM      4  C   UNL     1     -60.023 -54.732 -23.650  0.00  0.00    +0.000 C 
ATOM      5  C   UNL     1     -58.193 -55.733 -25.391  0.00  0.00    +0.000 C 
ATOM      6  C   UNL     1     -59.183 -56.377 -26.322  0.00  0.00    +0.000 C 
ATOM      7  C   UNL     1     -58.794 -57.340 -27.469  0.00  0.00    +0.000 C 
ATOM      8  C   UNL     1     -60.885 -55.292 -24.702  0.00  0.00    +0.000 C 
ATOM      9  C   UNL     1     -60.152 -53.124 -23.398  0.00  0.00    +0.000 C 
ATOM     10  C   UNL     1     -60.518 -56.073 -25.939  0.00  0.00    +0.000 C 
ATOM     11  C   UNL     1     -57.751 -53.759 -23.872  0.00  0.00    +0.000 C 
ATOM     12  C   UNL     1     -56.860 -55.887 -25.835  0.00  0.00    +0.000 C 
ATOM     13  C   UNL     1     -58.727 -52.733 -23.376  0.00  0.00    +0.000 C 
ATOM     14  C   UNL     1     -57.221 -57.210 -27.985  0.00  0.00    +0.000 C 
ATOM     15  C   UNL     1     -60.103 -55.600 -22.341  0.00  0.00    +0.000 C 
ATOM     16  C   UNL     1     -56.350 -56.579 -27.064  0.00  0.00    +0.000 C 
ATOM     17  C   UNL     1     -59.602 -57.027 -28.701  0.00  0.00    +0.000 C 
ATOM     18  C   UNL     1     -59.004 -58.809 -27.005  0.00  0.00    +0.000 C 
ATOM     19  C   UNL     1     -57.039 -56.984 -29.268  0.00  0.00    +0.000 C 
ATOM     20  C   UNL     1     -59.293 -56.756 -30.066  0.00  0.00    +0.000 A 
ATOM     21  C   UNL     1     -57.949 -56.750 -30.324  0.00  0.00    +0.000 A 
ATOM     22  C   UNL     1     -59.874 -56.485 -31.301  0.00  0.00    +0.000 A 
ENDROOT
BRANCH   9  23
ATOM     23  O   UNL     1     -60.761 -52.755 -22.151  0.00  0.00    +0.000 OA
ATOM     24  H   UNL     1     -61.428 -52.073 -22.340  0.00  0.00    +0.000 HD
ENDBRANCH   9  23
BRANCH   9  25
ATOM     25  C   UNL     1     -60.872 -52.462 -24.513  0.00  0.00    +0.000 C 
ATOM     26  C   UNL     1     -61.469 -51.916 -25.393  0.00  0.00    +0.000 C 
ENDBRANCH   9  25
TORSDOF 2
ENDMDL
