MODEL 1
REMARK VINA RESULT:      -4.4      0.000      0.000
REMARK  Name = Decitabine.pdbqt.pdb
REMARK  4 active torsions:
REMARK  status: ('A' for Active; 'I' for Inactive)
REMARK    1  A    between atoms: N_2  and  C1*_8
REMARK    2  A    between atoms: C4*_10  and  C5*_13
REMARK    3  A    between atoms: C3*_11  and  O3*_16
REMARK    4  A    between atoms: C5*_13  and  O5*_14
REMARK                            x       y       z     vdW  Elec       q    Type
REMARK                         _______ _______ _______ _____ _____    ______ ____
ROOT
ATOM      1  O   UNL     1     -61.718 -55.089 -17.919  0.00  0.00    +0.000 OA
ATOM      2  N   UNL     1     -63.534 -54.126 -18.984  0.00  0.00    +0.000 N 
ATOM      3  N   UNL     1     -63.728 -55.032 -16.830  0.00  0.00    +0.000 NA
ATOM      4  N   UNL     1     -65.613 -54.065 -17.918  0.00  0.00    +0.000 NA
ATOM      5  C   UNL     1     -62.902 -54.767 -17.923  0.00  0.00    +0.000 A 
ATOM      6  C   UNL     1     -64.823 -53.890 -18.758  0.00  0.00    +0.000 A 
ATOM      7  C   UNL     1     -64.989 -54.683 -16.847  0.00  0.00    +0.000 A 
ATOM      8  N   UNL     1     -65.750 -54.958 -15.757  0.00  0.00    +0.000 N 
ATOM      9  H   UNL     1     -66.737 -55.060 -15.952  0.00  0.00    +0.000 HD
ATOM     10  H   UNL     1     -65.355 -55.679 -15.165  0.00  0.00    +0.000 HD
ENDROOT
BRANCH   2  11
ATOM     11  C1* UNL     1     -62.959 -53.755 -20.159  0.00  0.00    +0.000 A 
ATOM     12  O4* UNL     1     -62.581 -54.690 -21.128  0.00  0.00    +0.000 OA
ATOM     13  C4* UNL     1     -62.037 -53.969 -22.198  0.00  0.00    +0.000 A 
ATOM     14  C3* UNL     1     -62.071 -52.562 -21.886  0.00  0.00    +0.000 A 
ATOM     15  C2* UNL     1     -62.664 -52.456 -20.616  0.00  0.00    +0.000 A 
BRANCH  14  16
ATOM     16  O3* UNL     1     -62.195 -51.625 -22.872  0.00  0.00    +0.000 OA
ATOM     17  H3* UNL     1     -62.992 -51.083 -22.741  0.00  0.00    +0.000 HD
ENDBRANCH  14  16
BRANCH  13  18
ATOM     18  C5* UNL     1     -61.704 -54.570 -23.427  0.00  0.00    +0.000 C 
BRANCH  18  19
ATOM     19  O5* UNL     1     -61.391 -55.134 -24.590  0.00  0.00    +0.000 OA
ATOM     20  H5* UNL     1     -60.458 -54.963 -24.806  0.00  0.00    +0.000 HD
ENDBRANCH  18  19
ENDBRANCH  13  18
ENDBRANCH   2  11
TORSDOF 4
ENDMDL
MODEL 2
REMARK VINA RESULT:      -4.2     15.940     18.172
REMARK  Name = Decitabine.pdbqt.pdb
REMARK  4 active torsions:
REMARK  status: ('A' for Active; 'I' for Inactive)
REMARK    1  A    between atoms: N_2  and  C1*_8
REMARK    2  A    between atoms: C4*_10  and  C5*_13
REMARK    3  A    between atoms: C3*_11  and  O3*_16
REMARK    4  A    between atoms: C5*_13  and  O5*_14
REMARK                            x       y       z     vdW  Elec       q    Type
REMARK                         _______ _______ _______ _____ _____    ______ ____
ROOT
ATOM      1  O   UNL     1     -70.513 -56.801 -36.175  0.00  0.00    +0.000 OA
ATOM      2  N   UNL     1     -68.211 -57.048 -36.181  0.00  0.00    +0.000 N 
ATOM      3  N   UNL     1     -69.465 -57.389 -34.230  0.00  0.00    +0.000 NA
ATOM      4  N   UNL     1     -67.096 -57.627 -34.211  0.00  0.00    +0.000 NA
ATOM      5  C   UNL     1     -69.469 -57.059 -35.586  0.00  0.00    +0.000 A 
ATOM      6  C   UNL     1     -67.231 -57.350 -35.336  0.00  0.00    +0.000 A 
ATOM      7  C   UNL     1     -68.345 -57.663 -33.613  0.00  0.00    +0.000 A 
ATOM      8  N   UNL     1     -68.395 -57.984 -32.295  0.00  0.00    +0.000 N 
ATOM      9  H   UNL     1     -67.546 -57.784 -31.783  0.00  0.00    +0.000 HD
ATOM     10  H   UNL     1     -69.248 -57.681 -31.841  0.00  0.00    +0.000 HD
ENDROOT
BRANCH   2  11
ATOM     11  C1* UNL     1     -67.938 -56.762 -37.482  0.00  0.00    +0.000 A 
ATOM     12  O4* UNL     1     -67.673 -55.458 -37.916  0.00  0.00    +0.000 OA
ATOM     13  C4* UNL     1     -67.431 -55.531 -39.294  0.00  0.00    +0.000 A 
ATOM     14  C3* UNL     1     -67.552 -56.900 -39.724  0.00  0.00    +0.000 A 
ATOM     15  C2* UNL     1     -67.856 -57.649 -38.574  0.00  0.00    +0.000 A 
BRANCH  14  16
ATOM     16  O3* UNL     1     -66.825 -57.374 -40.779  0.00  0.00    +0.000 OA
ATOM     17  H3* UNL     1     -66.643 -58.324 -40.679  0.00  0.00    +0.000 HD
ENDBRANCH  14  16
BRANCH  13  18
ATOM     18  C5* UNL     1     -66.961 -54.432 -40.039  0.00  0.00    +0.000 C 
BRANCH  18  19
ATOM     19  O5* UNL     1     -66.520 -53.391 -40.740  0.00  0.00    +0.000 OA
ATOM     20  H5* UNL     1     -65.548 -53.361 -40.720  0.00  0.00    +0.000 HD
ENDBRANCH  18  19
ENDBRANCH  13  18
ENDBRANCH   2  11
TORSDOF 4
ENDMDL
MODEL 3
REMARK VINA RESULT:      -4.1     34.835     37.304
REMARK  Name = Decitabine.pdbqt.pdb
REMARK  4 active torsions:
REMARK  status: ('A' for Active; 'I' for Inactive)
REMARK    1  A    between atoms: N_2  and  C1*_8
REMARK    2  A    between atoms: C4*_10  and  C5*_13
REMARK    3  A    between atoms: C3*_11  and  O3*_16
REMARK    4  A    between atoms: C5*_13  and  O5*_14
REMARK                            x       y       z     vdW  Elec       q    Type
REMARK                         _______ _______ _______ _____ _____    ______ ____
ROOT
ATOM      1  O   UNL     1     -63.172 -44.830 -54.601  0.00  0.00    +0.000 OA
ATOM      2  N   UNL     1     -64.098 -46.745 -55.517  0.00  0.00    +0.000 N 
ATOM      3  N   UNL     1     -64.154 -46.353 -53.206  0.00  0.00    +0.000 NA
ATOM      4  N   UNL     1     -65.092 -48.338 -54.126  0.00  0.00    +0.000 NA
ATOM      5  C   UNL     1     -63.764 -45.896 -54.466  0.00  0.00    +0.000 A 
ATOM      6  C   UNL     1     -64.727 -47.847 -55.119  0.00  0.00    +0.000 A 
ATOM      7  C   UNL     1     -64.785 -47.491 -53.075  0.00  0.00    +0.000 A 
ATOM      8  N   UNL     1     -65.148 -47.888 -51.829  0.00  0.00    +0.000 N 
ATOM      9  H   UNL     1     -65.239 -48.890 -51.719  0.00  0.00    +0.000 HD
ATOM     10  H   UNL     1     -64.627 -47.426 -51.093  0.00  0.00    +0.000 HD
ENDROOT
BRANCH   2  11
ATOM     11  C1* UNL     1     -63.836 -46.536 -56.834  0.00  0.00    +0.000 A 
ATOM     12  O4* UNL     1     -62.560 -46.722 -57.377  0.00  0.00    +0.000 OA
ATOM     13  C4* UNL     1     -62.653 -46.430 -58.743  0.00  0.00    +0.000 A 
ATOM     14  C3* UNL     1     -64.007 -46.050 -59.055  0.00  0.00    +0.000 A 
ATOM     15  C2* UNL     1     -64.727 -46.138 -57.851  0.00  0.00    +0.000 A 
BRANCH  14  16
ATOM     16  O3* UNL     1     -64.541 -46.293 -60.288  0.00  0.00    +0.000 OA
ATOM     17  H3* UNL     1     -65.164 -47.039 -60.258  0.00  0.00    +0.000 HD
ENDBRANCH  14  16
BRANCH  13  18
ATOM     18  C5* UNL     1     -61.597 -46.673 -59.644  0.00  0.00    +0.000 C 
BRANCH  18  19
ATOM     19  O5* UNL     1     -60.598 -46.901 -60.491  0.00  0.00    +0.000 OA
ATOM     20  H5* UNL     1     -59.972 -46.157 -60.480  0.00  0.00    +0.000 HD
ENDBRANCH  18  19
ENDBRANCH  13  18
ENDBRANCH   2  11
TORSDOF 4
ENDMDL
MODEL 4
REMARK VINA RESULT:      -4.1     73.790     75.528
REMARK  Name = Decitabine.pdbqt.pdb
REMARK  4 active torsions:
REMARK  status: ('A' for Active; 'I' for Inactive)
REMARK    1  A    between atoms: N_2  and  C1*_8
REMARK    2  A    between atoms: C4*_10  and  C5*_13
REMARK    3  A    between atoms: C3*_11  and  O3*_16
REMARK    4  A    between atoms: C5*_13  and  O5*_14
REMARK                            x       y       z     vdW  Elec       q    Type
REMARK                         _______ _______ _______ _____ _____    ______ ____
ROOT
ATOM      1  O   UNL     1     -41.755 -61.001 -91.747  0.00  0.00    +0.000 OA
ATOM      2  N   UNL     1     -43.216 -62.638 -92.483  0.00  0.00    +0.000 N 
ATOM      3  N   UNL     1     -40.939 -62.705 -93.034  0.00  0.00    +0.000 NA
ATOM      4  N   UNL     1     -42.430 -64.387 -93.819  0.00  0.00    +0.000 NA
ATOM      5  C   UNL     1     -41.967 -62.036 -92.369  0.00  0.00    +0.000 A 
ATOM      6  C   UNL     1     -43.197 -63.746 -93.218  0.00  0.00    +0.000 A 
ATOM      7  C   UNL     1     -41.178 -63.809 -93.694  0.00  0.00    +0.000 A 
ATOM      8  N   UNL     1     -40.143 -64.425 -94.320  0.00  0.00    +0.000 N 
ATOM      9  H   UNL     1     -40.411 -64.989 -95.115  0.00  0.00    +0.000 HD
ATOM     10  H   UNL     1     -39.350 -63.814 -94.479  0.00  0.00    +0.000 HD
ENDROOT
BRANCH   2  11
ATOM     11  C1* UNL     1     -44.377 -62.194 -91.933  0.00  0.00    +0.000 A 
ATOM     12  O4* UNL     1     -45.043 -61.063 -92.416  0.00  0.00    +0.000 OA
ATOM     13  C4* UNL     1     -46.192 -60.901 -91.631  0.00  0.00    +0.000 A 
ATOM     14  C3* UNL     1     -46.238 -61.946 -90.640  0.00  0.00    +0.000 A 
ATOM     15  C2* UNL     1     -45.103 -62.746 -90.859  0.00  0.00    +0.000 A 
BRANCH  14  16
ATOM     16  O3* UNL     1     -47.430 -62.416 -90.168  0.00  0.00    +0.000 OA
ATOM     17  H3* UNL     1     -48.167 -61.846 -90.448  0.00  0.00    +0.000 HD
ENDBRANCH  14  16
BRANCH  13  18
ATOM     18  C5* UNL     1     -47.194 -59.961 -91.939  0.00  0.00    +0.000 C 
BRANCH  18  19
ATOM     19  O5* UNL     1     -48.137 -59.069 -92.230  0.00  0.00    +0.000 OA
ATOM     20  H5* UNL     1     -49.019 -59.466 -92.126  0.00  0.00    +0.000 HD
ENDBRANCH  18  19
ENDBRANCH  13  18
ENDBRANCH   2  11
TORSDOF 4
ENDMDL
MODEL 5
REMARK VINA RESULT:      -4.0      2.893      4.472
REMARK  Name = Decitabine.pdbqt.pdb
REMARK  4 active torsions:
REMARK  status: ('A' for Active; 'I' for Inactive)
REMARK    1  A    between atoms: N_2  and  C1*_8
REMARK    2  A    between atoms: C4*_10  and  C5*_13
REMARK    3  A    between atoms: C3*_11  and  O3*_16
REMARK    4  A    between atoms: C5*_13  and  O5*_14
REMARK                            x       y       z     vdW  Elec       q    Type
REMARK                         _______ _______ _______ _____ _____    ______ ____
ROOT
ATOM      1  O   UNL     1     -64.110 -53.873 -13.887  0.00  0.00    +0.000 OA
ATOM      2  N   UNL     1     -64.329 -55.565 -15.452  0.00  0.00    +0.000 N 
ATOM      3  N   UNL     1     -64.014 -56.045 -13.179  0.00  0.00    +0.000 NA
ATOM      4  N   UNL     1     -64.216 -57.799 -14.776  0.00  0.00    +0.000 NA
ATOM      5  C   UNL     1     -64.152 -55.067 -14.165  0.00  0.00    +0.000 A 
ATOM      6  C   UNL     1     -64.328 -56.894 -15.503  0.00  0.00    +0.000 A 
ATOM      7  C   UNL     1     -64.061 -57.316 -13.489  0.00  0.00    +0.000 A 
ATOM      8  N   UNL     1     -63.928 -58.228 -12.492  0.00  0.00    +0.000 N 
ATOM      9  H   UNL     1     -63.563 -59.123 -12.791  0.00  0.00    +0.000 HD
ATOM     10  H   UNL     1     -63.497 -57.850 -11.658  0.00  0.00    +0.000 HD
ENDROOT
BRANCH   2  11
ATOM     11  C1* UNL     1     -64.488 -54.831 -16.585  0.00  0.00    +0.000 A 
ATOM     12  O4* UNL     1     -63.493 -54.753 -17.565  0.00  0.00    +0.000 OA
ATOM     13  C4* UNL     1     -63.989 -53.928 -18.583  0.00  0.00    +0.000 A 
ATOM     14  C3* UNL     1     -65.311 -53.481 -18.227  0.00  0.00    +0.000 A 
ATOM     15  C2* UNL     1     -65.604 -54.069 -16.984  0.00  0.00    +0.000 A 
BRANCH  14  16
ATOM     16  O3* UNL     1     -66.245 -53.209 -19.187  0.00  0.00    +0.000 OA
ATOM     17  H3* UNL     1     -66.227 -52.268 -19.433  0.00  0.00    +0.000 HD
ENDBRANCH  14  16
BRANCH  13  18
ATOM     18  C5* UNL     1     -63.325 -53.761 -19.814  0.00  0.00    +0.000 C 
BRANCH  18  19
ATOM     19  O5* UNL     1     -62.701 -53.599 -20.977  0.00  0.00    +0.000 OA
ATOM     20  H5* UNL     1     -61.741 -53.532 -20.838  0.00  0.00    +0.000 HD
ENDBRANCH  18  19
ENDBRANCH  13  18
ENDBRANCH   2  11
TORSDOF 4
ENDMDL
MODEL 6
REMARK VINA RESULT:      -3.9     11.886     13.333
REMARK  Name = Decitabine.pdbqt.pdb
REMARK  4 active torsions:
REMARK  status: ('A' for Active; 'I' for Inactive)
REMARK    1  A    between atoms: N_2  and  C1*_8
REMARK    2  A    between atoms: C4*_10  and  C5*_13
REMARK    3  A    between atoms: C3*_11  and  O3*_16
REMARK    4  A    between atoms: C5*_13  and  O5*_14
REMARK                            x       y       z     vdW  Elec       q    Type
REMARK                         _______ _______ _______ _____ _____    ______ ____
ROOT
ATOM      1  O   UNL     1     -71.865 -59.071 -29.647  0.00  0.00    +0.000 OA
ATOM      2  N   UNL     1     -71.426 -57.062 -28.585  0.00  0.00    +0.000 N 
ATOM      3  N   UNL     1     -70.675 -57.472 -30.767  0.00  0.00    +0.000 NA
ATOM      4  N   UNL     1     -70.195 -55.407 -29.684  0.00  0.00    +0.000 NA
ATOM      5  C   UNL     1     -71.366 -57.951 -29.653  0.00  0.00    +0.000 A 
ATOM      6  C   UNL     1     -70.801 -55.913 -28.825  0.00  0.00    +0.000 A 
ATOM      7  C   UNL     1     -70.148 -56.275 -30.762  0.00  0.00    +0.000 A 
ATOM      8  N   UNL     1     -69.491 -55.853 -31.872  0.00  0.00    +0.000 N 
ATOM      9  H   UNL     1     -68.781 -55.155 -31.698  0.00  0.00    +0.000 HD
ATOM     10  H   UNL     1     -69.202 -56.612 -32.479  0.00  0.00    +0.000 HD
ENDROOT
BRANCH   2  11
ATOM     11  C1* UNL     1     -72.037 -57.279 -27.390  0.00  0.00    +0.000 A 
ATOM     12  O4* UNL     1     -71.484 -58.116 -26.414  0.00  0.00    +0.000 OA
ATOM     13  C4* UNL     1     -72.362 -58.103 -25.323  0.00  0.00    +0.000 A 
ATOM     14  C3* UNL     1     -73.482 -57.249 -25.627  0.00  0.00    +0.000 A 
ATOM     15  C2* UNL     1     -73.248 -56.737 -26.915  0.00  0.00    +0.000 A 
BRANCH  14  16
ATOM     16  O3* UNL     1     -74.140 -56.573 -24.639  0.00  0.00    +0.000 OA
ATOM     17  H3* UNL     1     -73.537 -56.344 -23.911  0.00  0.00    +0.000 HD
ENDBRANCH  14  16
BRANCH  13  18
ATOM     18  C5* UNL     1     -72.044 -58.700 -24.087  0.00  0.00    +0.000 C 
BRANCH  18  19
ATOM     19  O5* UNL     1     -71.741 -59.260 -22.920  0.00  0.00    +0.000 OA
ATOM     20  H5* UNL     1     -71.447 -60.177 -23.053  0.00  0.00    +0.000 HD
ENDBRANCH  18  19
ENDBRANCH  13  18
ENDBRANCH   2  11
TORSDOF 4
ENDMDL
MODEL 7
REMARK VINA RESULT:      -3.9     63.238     65.343
REMARK  Name = Decitabine.pdbqt.pdb
REMARK  4 active torsions:
REMARK  status: ('A' for Active; 'I' for Inactive)
REMARK    1  A    between atoms: N_2  and  C1*_8
REMARK    2  A    between atoms: C4*_10  and  C5*_13
REMARK    3  A    between atoms: C3*_11  and  O3*_16
REMARK    4  A    between atoms: C5*_13  and  O5*_14
REMARK                            x       y       z     vdW  Elec       q    Type
REMARK                         _______ _______ _______ _____ _____    ______ ____
ROOT
ATOM      1  O   UNL     1     -58.499 -65.866 -85.070  0.00  0.00    +0.000 OA
ATOM      2  N   UNL     1     -60.152 -67.260 -84.245  0.00  0.00    +0.000 N 
ATOM      3  N   UNL     1     -60.288 -66.361 -86.406  0.00  0.00    +0.000 NA
ATOM      4  N   UNL     1     -62.009 -67.776 -85.568  0.00  0.00    +0.000 NA
ATOM      5  C   UNL     1     -59.564 -66.457 -85.217  0.00  0.00    +0.000 A 
ATOM      6  C   UNL     1     -61.311 -67.785 -84.633  0.00  0.00    +0.000 A 
ATOM      7  C   UNL     1     -61.422 -66.997 -86.550  0.00  0.00    +0.000 A 
ATOM      8  N   UNL     1     -62.085 -66.875 -87.728  0.00  0.00    +0.000 N 
ATOM      9  H   UNL     1     -63.085 -67.014 -87.661  0.00  0.00    +0.000 HD
ATOM     10  H   UNL     1     -61.803 -66.064 -88.265  0.00  0.00    +0.000 HD
ENDROOT
BRANCH   2  11
ATOM     11  C1* UNL     1     -59.657 -67.521 -83.007  0.00  0.00    +0.000 A 
ATOM     12  O4* UNL     1     -59.182 -68.787 -82.648  0.00  0.00    +0.000 OA
ATOM     13  C4* UNL     1     -58.745 -68.696 -81.320  0.00  0.00    +0.000 A 
ATOM     14  C3* UNL     1     -58.957 -67.353 -80.844  0.00  0.00    +0.000 A 
ATOM     15  C2* UNL     1     -59.513 -66.638 -81.918  0.00  0.00    +0.000 A 
BRANCH  14  16
ATOM     16  O3* UNL     1     -58.139 -66.805 -79.897  0.00  0.00    +0.000 OA
ATOM     17  H3* UNL     1     -58.654 -66.474 -79.140  0.00  0.00    +0.000 HD
ENDBRANCH  14  16
BRANCH  13  18
ATOM     18  C5* UNL     1     -58.046 -69.737 -80.679  0.00  0.00    +0.000 C 
BRANCH  18  19
ATOM     19  O5* UNL     1     -57.389 -70.724 -80.076  0.00  0.00    +0.000 OA
ATOM     20  H5* UNL     1     -57.759 -71.584 -80.337  0.00  0.00    +0.000 HD
ENDBRANCH  18  19
ENDBRANCH  13  18
ENDBRANCH   2  11
TORSDOF 4
ENDMDL
MODEL 8
REMARK VINA RESULT:      -3.9     12.442     14.014
REMARK  Name = Decitabine.pdbqt.pdb
REMARK  4 active torsions:
REMARK  status: ('A' for Active; 'I' for Inactive)
REMARK    1  A    between atoms: N_2  and  C1*_8
REMARK    2  A    between atoms: C4*_10  and  C5*_13
REMARK    3  A    between atoms: C3*_11  and  O3*_16
REMARK    4  A    between atoms: C5*_13  and  O5*_14
REMARK                            x       y       z     vdW  Elec       q    Type
REMARK                         _______ _______ _______ _____ _____    ______ ____
ROOT
ATOM      1  O   UNL     1     -69.695 -54.807 -30.204  0.00  0.00    +0.000 OA
ATOM      2  N   UNL     1     -70.401 -56.913 -30.858  0.00  0.00    +0.000 N 
ATOM      3  N   UNL     1     -70.938 -56.054 -28.744  0.00  0.00    +0.000 NA
ATOM      4  N   UNL     1     -71.655 -58.230 -29.390  0.00  0.00    +0.000 NA
ATOM      5  C   UNL     1     -70.297 -55.850 -29.967  0.00  0.00    +0.000 A 
ATOM      6  C   UNL     1     -71.093 -57.938 -30.370  0.00  0.00    +0.000 A 
ATOM      7  C   UNL     1     -71.576 -57.170 -28.503  0.00  0.00    +0.000 A 
ATOM      8  N   UNL     1     -72.188 -57.317 -27.300  0.00  0.00    +0.000 N 
ATOM      9  H   UNL     1     -72.296 -58.277 -27.001  0.00  0.00    +0.000 HD
ATOM     10  H   UNL     1     -71.834 -56.687 -26.591  0.00  0.00    +0.000 HD
ENDROOT
BRANCH   2  11
ATOM     11  C1* UNL     1     -69.873 -56.970 -32.109  0.00  0.00    +0.000 A 
ATOM     12  O4* UNL     1     -68.731 -57.724 -32.400  0.00  0.00    +0.000 OA
ATOM     13  C4* UNL     1     -68.474 -57.563 -33.767  0.00  0.00    +0.000 A 
ATOM     14  C3* UNL     1     -69.469 -56.689 -34.335  0.00  0.00    +0.000 A 
ATOM     15  C2* UNL     1     -70.336 -56.345 -33.284  0.00  0.00    +0.000 A 
BRANCH  14  16
ATOM     16  O3* UNL     1     -69.855 -56.815 -35.639  0.00  0.00    +0.000 OA
ATOM     17  H3* UNL     1     -69.906 -55.946 -36.073  0.00  0.00    +0.000 HD
ENDBRANCH  14  16
BRANCH  13  18
ATOM     18  C5* UNL     1     -67.498 -58.315 -34.449  0.00  0.00    +0.000 C 
BRANCH  18  19
ATOM     19  O5* UNL     1     -66.574 -59.026 -35.089  0.00  0.00    +0.000 OA
ATOM     20  H5* UNL     1     -65.818 -59.201 -34.502  0.00  0.00    +0.000 HD
ENDBRANCH  18  19
ENDBRANCH  13  18
ENDBRANCH   2  11
TORSDOF 4
ENDMDL
MODEL 9
REMARK VINA RESULT:      -3.9     72.669     75.367
REMARK  Name = Decitabine.pdbqt.pdb
REMARK  4 active torsions:
REMARK  status: ('A' for Active; 'I' for Inactive)
REMARK    1  A    between atoms: N_2  and  C1*_8
REMARK    2  A    between atoms: C4*_10  and  C5*_13
REMARK    3  A    between atoms: C3*_11  and  O3*_16
REMARK    4  A    between atoms: C5*_13  and  O5*_14
REMARK                            x       y       z     vdW  Elec       q    Type
REMARK                         _______ _______ _______ _____ _____    ______ ____
ROOT
ATOM      1  O   UNL     1     -43.614 -63.199 -89.656  0.00  0.00    +0.000 OA
ATOM      2  N   UNL     1     -44.224 -62.137 -91.621  0.00  0.00    +0.000 N 
ATOM      3  N   UNL     1     -45.446 -61.831 -89.644  0.00  0.00    +0.000 NA
ATOM      4  N   UNL     1     -46.102 -60.747 -91.659  0.00  0.00    +0.000 NA
ATOM      5  C   UNL     1     -44.363 -62.447 -90.271  0.00  0.00    +0.000 A 
ATOM      6  C   UNL     1     -45.164 -61.309 -92.066  0.00  0.00    +0.000 A 
ATOM      7  C   UNL     1     -46.237 -61.030 -90.311  0.00  0.00    +0.000 A 
ATOM      8  N   UNL     1     -47.273 -60.451 -89.653  0.00  0.00    +0.000 N 
ATOM      9  H   UNL     1     -48.056 -60.202 -90.244  0.00  0.00    +0.000 HD
ATOM     10  H   UNL     1     -47.522 -60.930 -88.796  0.00  0.00    +0.000 HD
ENDROOT
BRANCH   2  11
ATOM     11  C1* UNL     1     -43.258 -62.600 -92.458  0.00  0.00    +0.000 A 
ATOM     12  O4* UNL     1     -42.105 -61.860 -92.743  0.00  0.00    +0.000 OA
ATOM     13  C4* UNL     1     -41.336 -62.631 -93.624  0.00  0.00    +0.000 A 
ATOM     14  C3* UNL     1     -42.023 -63.867 -93.895  0.00  0.00    +0.000 A 
ATOM     15  C2* UNL     1     -43.212 -63.829 -93.146  0.00  0.00    +0.000 A 
BRANCH  14  16
ATOM     16  O3* UNL     1     -41.332 -65.010 -94.180  0.00  0.00    +0.000 OA
ATOM     17  H3* UNL     1     -41.616 -65.388 -95.031  0.00  0.00    +0.000 HD
ENDBRANCH  14  16
BRANCH  13  18
ATOM     18  C5* UNL     1     -40.023 -62.276 -93.993  0.00  0.00    +0.000 C 
BRANCH  18  19
ATOM     19  O5* UNL     1     -38.783 -61.942 -94.337  0.00  0.00    +0.000 OA
ATOM     20  H5* UNL     1     -38.158 -62.208 -93.641  0.00  0.00    +0.000 HD
ENDBRANCH  18  19
ENDBRANCH  13  18
ENDBRANCH   2  11
TORSDOF 4
ENDMDL
