MODEL 1
REMARK VINA RESULT:      -5.2      0.000      0.000
REMARK  Name = Deferoxamine.pdbqt.pdb
REMARK  19 active torsions:
REMARK  status: ('A' for Active; 'I' for Inactive)
REMARK    1  A    between atoms: C_1  and  C_2
REMARK    2  A    between atoms: C_3  and  C_4
REMARK    3  A    between atoms: C_4  and  N_5
REMARK    4  A    between atoms: C_6  and  C_9
REMARK    5  A    between atoms: C_10  and  C_11
REMARK    6  A    between atoms: N_13  and  O_14
REMARK    7  A    between atoms: N_13  and  C_16
REMARK    8  A    between atoms: C_17  and  C_18
REMARK    9  A    between atoms: C_19  and  C_20
REMARK   10  A    between atoms: C_20  and  N_21
REMARK   11  A    between atoms: C_24  and  N_25
REMARK   12  A    between atoms: N_25  and  O_28
REMARK   13  A    between atoms: C_26  and  C_30
REMARK   14  A    between atoms: C_31  and  C_32
REMARK   15  A    between atoms: N_34  and  C_36
REMARK   16  A    between atoms: C_37  and  C_38
REMARK   17  A    between atoms: C_38  and  C_39
REMARK   18  A    between atoms: C_40  and  N_41
REMARK   19  A    between atoms: N_41  and  O_45
REMARK                            x       y       z     vdW  Elec       q    Type
REMARK                         _______ _______ _______ _____ _____    ______ ____
ROOT
ATOM      1  C   UNL     1     -69.742 -56.983 -33.281  0.00  0.00    +0.000 C 
ATOM      2  C   UNL     1     -70.192 -57.040 -32.168  0.00  0.00    +0.000 C 
ENDROOT
BRANCH   2   3
ATOM      3  N   UNL     1     -70.699 -57.106 -30.920  0.00  0.00    +0.000 N 
ATOM      4  C   UNL     1     -71.400 -58.115 -30.282  0.00  0.00    +0.000 C 
ATOM      5  O   UNL     1     -71.848 -59.114 -30.835  0.00  0.00    +0.000 OA
BRANCH   4   6
ATOM      6  C   UNL     1     -71.652 -57.959 -28.864  0.00  0.00    +0.000 C 
ATOM      7  C   UNL     1     -71.856 -57.843 -27.686  0.00  0.00    +0.000 C 
BRANCH   7   8
ATOM      8  C   UNL     1     -72.106 -57.726 -26.271  0.00  0.00    +0.000 C 
ATOM      9  O   UNL     1     -71.408 -58.359 -25.491  0.00  0.00    +0.000 OA
ATOM     10  N   UNL     1     -73.140 -56.886 -25.925  0.00  0.00    +0.000 N 
ATOM     11  H   UNL     1     -73.619 -56.429 -26.691  0.00  0.00    +0.000 HD
BRANCH  10  12
ATOM     12  C   UNL     1     -73.610 -56.574 -24.698  0.00  0.00    +0.000 C 
ATOM     13  C   UNL     1     -74.023 -56.300 -23.605  0.00  0.00    +0.000 C 
BRANCH  13  14
ATOM     14  C   UNL     1     -74.541 -55.953 -22.206  0.00  0.00    +0.000 C 
BRANCH  14  15
ATOM     15  C   UNL     1     -75.055 -55.613 -20.804  0.00  0.00    +0.000 C 
ATOM     16  C   UNL     1     -75.461 -55.346 -19.706  0.00  0.00    +0.000 C 
BRANCH  16  17
ATOM     17  N   UNL     1     -75.922 -55.048 -18.476  0.00  0.00    +0.000 N 
ATOM     18  C   UNL     1     -76.836 -55.687 -17.672  0.00  0.00    +0.000 C 
ATOM     19  O   UNL     1     -77.473 -56.707 -17.866  0.00  0.00    +0.000 OA
ATOM     20  C   UNL     1     -77.161 -55.103 -16.319  0.00  0.00    +0.000 C 
BRANCH  17  21
ATOM     21  O   UNL     1     -75.304 -53.855 -18.020  0.00  0.00    +0.000 OA
ATOM     22  H   UNL     1     -76.001 -53.441 -17.470  0.00  0.00    +0.000 HD
ENDBRANCH  17  21
ENDBRANCH  16  17
ENDBRANCH  14  15
ENDBRANCH  13  14
ENDBRANCH  10  12
ENDBRANCH   7   8
ENDBRANCH   4   6
BRANCH   3  23
ATOM     23  O   UNL     1     -70.071 -56.135 -30.108  0.00  0.00    +0.000 OA
ATOM     24  H   UNL     1     -70.550 -56.247 -29.266  0.00  0.00    +0.000 HD
ENDBRANCH   3  23
ENDBRANCH   2   3
BRANCH   1  25
ATOM     25  C   UNL     1     -69.180 -56.898 -34.702  0.00  0.00    +0.000 C 
ATOM     26  C   UNL     1     -68.748 -56.823 -35.819  0.00  0.00    +0.000 C 
BRANCH  26  27
ATOM     27  C   UNL     1     -68.207 -56.716 -37.249  0.00  0.00    +0.000 C 
BRANCH  27  28
ATOM     28  N   UNL     1     -67.741 -56.637 -38.514  0.00  0.00    +0.000 N 
ATOM     29  C   UNL     1     -67.264 -55.541 -39.194  0.00  0.00    +0.000 C 
ATOM     30  O   UNL     1     -67.179 -54.405 -38.750  0.00  0.00    +0.000 OA
ATOM     31  H   UNL     1     -67.742 -57.516 -39.015  0.00  0.00    +0.000 HD
BRANCH  29  32
ATOM     32  C   UNL     1     -66.834 -55.796 -40.547  0.00  0.00    +0.000 C 
ATOM     33  C   UNL     1     -66.494 -56.024 -41.677  0.00  0.00    +0.000 C 
BRANCH  33  34
ATOM     34  C   UNL     1     -66.106 -56.301 -43.045  0.00  0.00    +0.000 C 
ATOM     35  O   UNL     1     -66.938 -56.101 -43.924  0.00  0.00    +0.000 OA
ATOM     36  N   UNL     1     -64.835 -56.809 -43.257  0.00  0.00    +0.000 N 
BRANCH  36  37
ATOM     37  C   UNL     1     -64.154 -57.025 -44.401  0.00  0.00    +0.000 C 
ATOM     38  C   UNL     1     -63.545 -57.217 -45.417  0.00  0.00    +0.000 C 
BRANCH  38  39
ATOM     39  C   UNL     1     -62.762 -57.456 -46.712  0.00  0.00    +0.000 C 
ATOM     40  C   UNL     1     -62.153 -57.648 -47.728  0.00  0.00    +0.000 C 
BRANCH  40  41
ATOM     41  C   UNL     1     -61.378 -57.897 -49.024  0.00  0.00    +0.000 C 
BRANCH  41  42
ATOM     42  N   UNL     1     -60.641 -58.133 -50.255  0.00  0.00    +0.000 NA
ATOM     43  H   UNL     1     -60.764 -59.096 -50.564  0.00  0.00    +0.000 HD
ATOM     44  H   UNL     1     -61.005 -57.548 -51.005  0.00  0.00    +0.000 HD
ENDBRANCH  41  42
ENDBRANCH  40  41
ENDBRANCH  38  39
ENDBRANCH  36  37
BRANCH  36  45
ATOM     45  O   UNL     1     -63.933 -56.782 -42.169  0.00  0.00    +0.000 OA
ATOM     46  H   UNL     1     -63.528 -57.667 -42.233  0.00  0.00    +0.000 HD
ENDBRANCH  36  45
ENDBRANCH  33  34
ENDBRANCH  29  32
ENDBRANCH  27  28
ENDBRANCH  26  27
ENDBRANCH   1  25
TORSDOF 19
ENDMDL
MODEL 2
REMARK VINA RESULT:      -5.0      2.450     22.466
REMARK  Name = Deferoxamine.pdbqt.pdb
REMARK  19 active torsions:
REMARK  status: ('A' for Active; 'I' for Inactive)
REMARK    1  A    between atoms: C_1  and  C_2
REMARK    2  A    between atoms: C_3  and  C_4
REMARK    3  A    between atoms: C_4  and  N_5
REMARK    4  A    between atoms: C_6  and  C_9
REMARK    5  A    between atoms: C_10  and  C_11
REMARK    6  A    between atoms: N_13  and  O_14
REMARK    7  A    between atoms: N_13  and  C_16
REMARK    8  A    between atoms: C_17  and  C_18
REMARK    9  A    between atoms: C_19  and  C_20
REMARK   10  A    between atoms: C_20  and  N_21
REMARK   11  A    between atoms: C_24  and  N_25
REMARK   12  A    between atoms: N_25  and  O_28
REMARK   13  A    between atoms: C_26  and  C_30
REMARK   14  A    between atoms: C_31  and  C_32
REMARK   15  A    between atoms: N_34  and  C_36
REMARK   16  A    between atoms: C_37  and  C_38
REMARK   17  A    between atoms: C_38  and  C_39
REMARK   18  A    between atoms: C_40  and  N_41
REMARK   19  A    between atoms: N_41  and  O_45
REMARK                            x       y       z     vdW  Elec       q    Type
REMARK                         _______ _______ _______ _____ _____    ______ ____
ROOT
ATOM      1  C   UNL     1     -68.703 -56.904 -36.234  0.00  0.00    +0.000 C 
ATOM      2  C   UNL     1     -68.370 -56.791 -37.383  0.00  0.00    +0.000 C 
ENDROOT
BRANCH   2   3
ATOM      3  N   UNL     1     -67.996 -56.663 -38.672  0.00  0.00    +0.000 N 
ATOM      4  C   UNL     1     -67.389 -55.611 -39.335  0.00  0.00    +0.000 C 
ATOM      5  O   UNL     1     -67.230 -54.487 -38.870  0.00  0.00    +0.000 OA
BRANCH   4   6
ATOM      6  C   UNL     1     -66.941 -55.847 -40.692  0.00  0.00    +0.000 C 
ATOM      7  C   UNL     1     -66.571 -56.029 -41.821  0.00  0.00    +0.000 C 
BRANCH   7   8
ATOM      8  C   UNL     1     -66.142 -56.232 -43.183  0.00  0.00    +0.000 C 
ATOM      9  O   UNL     1     -66.949 -56.077 -44.088  0.00  0.00    +0.000 OA
ATOM     10  N   UNL     1     -64.821 -56.591 -43.334  0.00  0.00    +0.000 N 
ATOM     11  H   UNL     1     -64.280 -56.673 -42.483  0.00  0.00    +0.000 HD
BRANCH  10  12
ATOM     12  C   UNL     1     -64.134 -56.847 -44.468  0.00  0.00    +0.000 C 
ATOM     13  C   UNL     1     -63.526 -57.070 -45.479  0.00  0.00    +0.000 C 
BRANCH  13  14
ATOM     14  C   UNL     1     -62.754 -57.347 -46.772  0.00  0.00    +0.000 C 
BRANCH  14  15
ATOM     15  C   UNL     1     -61.977 -57.630 -48.061  0.00  0.00    +0.000 C 
ATOM     16  C   UNL     1     -61.369 -57.850 -49.073  0.00  0.00    +0.000 C 
BRANCH  16  17
ATOM     17  N   UNL     1     -60.688 -58.090 -50.210  0.00  0.00    +0.000 N 
ATOM     18  C   UNL     1     -60.084 -57.236 -51.102  0.00  0.00    +0.000 C 
ATOM     19  O   UNL     1     -60.003 -56.020 -51.091  0.00  0.00    +0.000 OA
ATOM     20  C   UNL     1     -59.386 -57.807 -52.311  0.00  0.00    +0.000 C 
BRANCH  17  21
ATOM     21  O   UNL     1     -60.646 -59.489 -50.444  0.00  0.00    +0.000 OA
ATOM     22  H   UNL     1     -60.193 -59.834 -49.647  0.00  0.00    +0.000 HD
ENDBRANCH  17  21
ENDBRANCH  16  17
ENDBRANCH  14  15
ENDBRANCH  13  14
ENDBRANCH  10  12
ENDBRANCH   7   8
ENDBRANCH   4   6
BRANCH   3  23
ATOM     23  O   UNL     1     -67.910 -57.943 -39.264  0.00  0.00    +0.000 OA
ATOM     24  H   UNL     1     -68.615 -57.894 -39.936  0.00  0.00    +0.000 HD
ENDBRANCH   3  23
ENDBRANCH   2   3
BRANCH   1  25
ATOM     25  C   UNL     1     -69.133 -57.034 -34.770  0.00  0.00    +0.000 C 
ATOM     26  C   UNL     1     -69.482 -57.141 -33.627  0.00  0.00    +0.000 C 
BRANCH  26  27
ATOM     27  C   UNL     1     -69.940 -57.284 -32.172  0.00  0.00    +0.000 C 
BRANCH  27  28
ATOM     28  N   UNL     1     -70.360 -57.403 -30.894  0.00  0.00    +0.000 N 
ATOM     29  C   UNL     1     -71.443 -58.089 -30.398  0.00  0.00    +0.000 C 
ATOM     30  O   UNL     1     -72.245 -58.733 -31.059  0.00  0.00    +0.000 OA
ATOM     31  H   UNL     1     -69.781 -56.921 -30.218  0.00  0.00    +0.000 HD
BRANCH  29  32
ATOM     32  C   UNL     1     -71.615 -58.019 -28.967  0.00  0.00    +0.000 C 
ATOM     33  C   UNL     1     -71.741 -57.943 -27.775  0.00  0.00    +0.000 C 
BRANCH  33  34
ATOM     34  C   UNL     1     -71.888 -57.829 -26.339  0.00  0.00    +0.000 C 
ATOM     35  O   UNL     1     -71.014 -58.326 -25.635  0.00  0.00    +0.000 OA
ATOM     36  N   UNL     1     -73.026 -57.200 -25.862  0.00  0.00    +0.000 N 
BRANCH  36  37
ATOM     37  C   UNL     1     -73.365 -56.824 -24.611  0.00  0.00    +0.000 C 
ATOM     38  C   UNL     1     -73.663 -56.490 -23.498  0.00  0.00    +0.000 C 
BRANCH  38  39
ATOM     39  C   UNL     1     -74.039 -56.068 -22.074  0.00  0.00    +0.000 C 
ATOM     40  C   UNL     1     -74.338 -55.741 -20.959  0.00  0.00    +0.000 C 
BRANCH  40  41
ATOM     41  C   UNL     1     -74.722 -55.326 -19.536  0.00  0.00    +0.000 C 
BRANCH  41  42
ATOM     42  N   UNL     1     -75.087 -54.932 -18.185  0.00  0.00    +0.000 NA
ATOM     43  H   UNL     1     -74.730 -54.001 -17.978  0.00  0.00    +0.000 HD
ATOM     44  H   UNL     1     -76.100 -54.872 -18.093  0.00  0.00    +0.000 HD
ENDBRANCH  41  42
ENDBRANCH  40  41
ENDBRANCH  38  39
ENDBRANCH  36  37
BRANCH  36  45
ATOM     45  O   UNL     1     -73.825 -56.502 -26.795  0.00  0.00    +0.000 OA
ATOM     46  H   UNL     1     -73.190 -55.850 -27.145  0.00  0.00    +0.000 HD
ENDBRANCH  36  45
ENDBRANCH  33  34
ENDBRANCH  29  32
ENDBRANCH  27  28
ENDBRANCH  26  27
ENDBRANCH   1  25
TORSDOF 19
ENDMDL
MODEL 3
REMARK VINA RESULT:      -5.0     11.355     25.023
REMARK  Name = Deferoxamine.pdbqt.pdb
REMARK  19 active torsions:
REMARK  status: ('A' for Active; 'I' for Inactive)
REMARK    1  A    between atoms: C_1  and  C_2
REMARK    2  A    between atoms: C_3  and  C_4
REMARK    3  A    between atoms: C_4  and  N_5
REMARK    4  A    between atoms: C_6  and  C_9
REMARK    5  A    between atoms: C_10  and  C_11
REMARK    6  A    between atoms: N_13  and  O_14
REMARK    7  A    between atoms: N_13  and  C_16
REMARK    8  A    between atoms: C_17  and  C_18
REMARK    9  A    between atoms: C_19  and  C_20
REMARK   10  A    between atoms: C_20  and  N_21
REMARK   11  A    between atoms: C_24  and  N_25
REMARK   12  A    between atoms: N_25  and  O_28
REMARK   13  A    between atoms: C_26  and  C_30
REMARK   14  A    between atoms: C_31  and  C_32
REMARK   15  A    between atoms: N_34  and  C_36
REMARK   16  A    between atoms: C_37  and  C_38
REMARK   17  A    between atoms: C_38  and  C_39
REMARK   18  A    between atoms: C_40  and  N_41
REMARK   19  A    between atoms: N_41  and  O_45
REMARK                            x       y       z     vdW  Elec       q    Type
REMARK                         _______ _______ _______ _____ _____    ______ ____
ROOT
ATOM      1  C   UNL     1     -61.427 -58.427 -42.014  0.00  0.00    +0.000 C 
ATOM      2  C   UNL     1     -61.700 -58.356 -43.182  0.00  0.00    +0.000 C 
ENDROOT
BRANCH   2   3
ATOM      3  N   UNL     1     -62.008 -58.279 -44.493  0.00  0.00    +0.000 N 
ATOM      4  C   UNL     1     -62.742 -57.338 -45.194  0.00  0.00    +0.000 C 
ATOM      5  O   UNL     1     -63.416 -56.451 -44.681  0.00  0.00    +0.000 OA
BRANCH   4   6
ATOM      6  C   UNL     1     -62.740 -57.432 -46.639  0.00  0.00    +0.000 C 
ATOM      7  C   UNL     1     -62.749 -57.520 -47.837  0.00  0.00    +0.000 C 
BRANCH   7   8
ATOM      8  C   UNL     1     -62.763 -57.649 -49.274  0.00  0.00    +0.000 C 
ATOM      9  O   UNL     1     -63.754 -58.116 -49.818  0.00  0.00    +0.000 OA
ATOM     10  N   UNL     1     -61.622 -57.219 -49.912  0.00  0.00    +0.000 N 
ATOM     11  H   UNL     1     -60.889 -56.852 -49.318  0.00  0.00    +0.000 HD
BRANCH  10  12
ATOM     12  C   UNL     1     -61.337 -57.211 -51.232  0.00  0.00    +0.000 C 
ATOM     13  C   UNL     1     -61.089 -57.206 -52.406  0.00  0.00    +0.000 C 
BRANCH  13  14
ATOM     14  C   UNL     1     -60.782 -57.200 -53.907  0.00  0.00    +0.000 C 
BRANCH  14  15
ATOM     15  C   UNL     1     -60.467 -57.198 -55.406  0.00  0.00    +0.000 C 
ATOM     16  C   UNL     1     -60.222 -57.197 -56.581  0.00  0.00    +0.000 C 
BRANCH  16  17
ATOM     17  N   UNL     1     -59.954 -57.198 -57.901  0.00  0.00    +0.000 N 
ATOM     18  C   UNL     1     -60.759 -57.442 -58.989  0.00  0.00    +0.000 C 
ATOM     19  O   UNL     1     -61.943 -57.722 -59.041  0.00  0.00    +0.000 OA
ATOM     20  C   UNL     1     -60.165 -57.373 -60.374  0.00  0.00    +0.000 C 
BRANCH  17  21
ATOM     21  O   UNL     1     -58.584 -56.888 -58.101  0.00  0.00    +0.000 OA
ATOM     22  H   UNL     1     -58.569 -56.527 -59.012  0.00  0.00    +0.000 HD
ENDBRANCH  17  21
ENDBRANCH  16  17
ENDBRANCH  14  15
ENDBRANCH  13  14
ENDBRANCH  10  12
ENDBRANCH   7   8
ENDBRANCH   4   6
BRANCH   3  23
ATOM     23  O   UNL     1     -61.122 -59.096 -45.231  0.00  0.00    +0.000 OA
ATOM     24  H   UNL     1     -60.839 -59.738 -44.553  0.00  0.00    +0.000 HD
ENDBRANCH   3  23
ENDBRANCH   2   3
BRANCH   1  25
ATOM     25  C   UNL     1     -61.076 -58.531 -40.527  0.00  0.00    +0.000 C 
ATOM     26  C   UNL     1     -60.814 -58.609 -39.359  0.00  0.00    +0.000 C 
BRANCH  26  27
ATOM     27  C   UNL     1     -60.492 -58.703 -37.864  0.00  0.00    +0.000 C 
BRANCH  27  28
ATOM     28  N   UNL     1     -60.225 -58.788 -36.543  0.00  0.00    +0.000 N 
ATOM     29  C   UNL     1     -59.112 -59.294 -35.915  0.00  0.00    +0.000 C 
ATOM     30  O   UNL     1     -58.133 -59.772 -36.469  0.00  0.00    +0.000 OA
ATOM     31  H   UNL     1     -60.954 -58.419 -35.946  0.00  0.00    +0.000 HD
BRANCH  29  32
ATOM     32  C   UNL     1     -59.138 -59.235 -34.473  0.00  0.00    +0.000 C 
ATOM     33  C   UNL     1     -59.184 -59.184 -33.274  0.00  0.00    +0.000 C 
BRANCH  33  34
ATOM     34  C   UNL     1     -59.259 -59.135 -31.828  0.00  0.00    +0.000 C 
ATOM     35  O   UNL     1     -58.871 -60.117 -31.204  0.00  0.00    +0.000 OA
ATOM     36  N   UNL     1     -59.799 -57.995 -31.256  0.00  0.00    +0.000 N 
BRANCH  36  37
ATOM     37  C   UNL     1     -59.866 -57.605 -29.967  0.00  0.00    +0.000 C 
ATOM     38  C   UNL     1     -59.923 -57.260 -28.819  0.00  0.00    +0.000 C 
BRANCH  38  39
ATOM     39  C   UNL     1     -59.993 -56.826 -27.351  0.00  0.00    +0.000 C 
ATOM     40  C   UNL     1     -60.047 -56.490 -26.200  0.00  0.00    +0.000 C 
BRANCH  40  41
ATOM     41  C   UNL     1     -60.113 -56.066 -24.731  0.00  0.00    +0.000 C 
BRANCH  41  42
ATOM     42  N   UNL     1     -60.177 -55.664 -23.335  0.00  0.00    +0.000 NA
ATOM     43  H   UNL     1     -59.376 -56.028 -22.823  0.00  0.00    +0.000 HD
ATOM     44  H   UNL     1     -60.126 -54.649 -23.255  0.00  0.00    +0.000 HD
ENDBRANCH  41  42
ENDBRANCH  40  41
ENDBRANCH  38  39
ENDBRANCH  36  37
BRANCH  36  45
ATOM     45  O   UNL     1     -60.001 -56.877 -32.097  0.00  0.00    +0.000 OA
ATOM     46  H   UNL     1     -60.800 -56.480 -31.702  0.00  0.00    +0.000 HD
ENDBRANCH  36  45
ENDBRANCH  33  34
ENDBRANCH  29  32
ENDBRANCH  27  28
ENDBRANCH  26  27
ENDBRANCH   1  25
TORSDOF 19
ENDMDL
MODEL 4
REMARK VINA RESULT:      -5.0     10.421     12.252
REMARK  Name = Deferoxamine.pdbqt.pdb
REMARK  19 active torsions:
REMARK  status: ('A' for Active; 'I' for Inactive)
REMARK    1  A    between atoms: C_1  and  C_2
REMARK    2  A    between atoms: C_3  and  C_4
REMARK    3  A    between atoms: C_4  and  N_5
REMARK    4  A    between atoms: C_6  and  C_9
REMARK    5  A    between atoms: C_10  and  C_11
REMARK    6  A    between atoms: N_13  and  O_14
REMARK    7  A    between atoms: N_13  and  C_16
REMARK    8  A    between atoms: C_17  and  C_18
REMARK    9  A    between atoms: C_19  and  C_20
REMARK   10  A    between atoms: C_20  and  N_21
REMARK   11  A    between atoms: C_24  and  N_25
REMARK   12  A    between atoms: N_25  and  O_28
REMARK   13  A    between atoms: C_26  and  C_30
REMARK   14  A    between atoms: C_31  and  C_32
REMARK   15  A    between atoms: N_34  and  C_36
REMARK   16  A    between atoms: C_37  and  C_38
REMARK   17  A    between atoms: C_38  and  C_39
REMARK   18  A    between atoms: C_40  and  N_41
REMARK   19  A    between atoms: N_41  and  O_45
REMARK                            x       y       z     vdW  Elec       q    Type
REMARK                         _______ _______ _______ _____ _____    ______ ____
ROOT
ATOM      1  C   UNL     1     -60.874 -58.699 -39.567  0.00  0.00    +0.000 C 
ATOM      2  C   UNL     1     -60.670 -58.883 -38.398  0.00  0.00    +0.000 C 
ENDROOT
BRANCH   2   3
ATOM      3  N   UNL     1     -60.443 -59.088 -37.084  0.00  0.00    +0.000 N 
ATOM      4  C   UNL     1     -59.413 -59.751 -36.439  0.00  0.00    +0.000 C 
ATOM      5  O   UNL     1     -58.571 -60.448 -36.996  0.00  0.00    +0.000 OA
BRANCH   4   6
ATOM      6  C   UNL     1     -59.349 -59.640 -34.996  0.00  0.00    +0.000 C 
ATOM      7  C   UNL     1     -59.281 -59.550 -33.800  0.00  0.00    +0.000 C 
BRANCH   7   8
ATOM      8  C   UNL     1     -59.183 -59.459 -32.364  0.00  0.00    +0.000 C 
ATOM      9  O   UNL     1     -58.680 -60.384 -31.744  0.00  0.00    +0.000 OA
ATOM     10  N   UNL     1     -59.683 -58.299 -31.815  0.00  0.00    +0.000 N 
ATOM     11  H   UNL     1     -60.064 -57.625 -32.467  0.00  0.00    +0.000 HD
BRANCH  10  12
ATOM     12  C   UNL     1     -59.734 -57.925 -30.518  0.00  0.00    +0.000 C 
ATOM     13  C   UNL     1     -59.780 -57.587 -29.368  0.00  0.00    +0.000 C 
BRANCH  13  14
ATOM     14  C   UNL     1     -59.841 -57.147 -27.902  0.00  0.00    +0.000 C 
BRANCH  14  15
ATOM     15  C   UNL     1     -59.908 -56.700 -26.439  0.00  0.00    +0.000 C 
ATOM     16  C   UNL     1     -59.958 -56.349 -25.292  0.00  0.00    +0.000 C 
BRANCH  16  17
ATOM     17  N   UNL     1     -60.008 -55.950 -24.006  0.00  0.00    +0.000 N 
ATOM     18  C   UNL     1     -61.006 -55.339 -23.285  0.00  0.00    +0.000 C 
ATOM     19  O   UNL     1     -62.124 -54.997 -23.627  0.00  0.00    +0.000 OA
ATOM     20  C   UNL     1     -60.766 -55.004 -21.834  0.00  0.00    +0.000 C 
BRANCH  17  21
ATOM     21  O   UNL     1     -58.774 -56.252 -23.374  0.00  0.00    +0.000 OA
ATOM     22  H   UNL     1     -59.048 -56.542 -22.479  0.00  0.00    +0.000 HD
ENDBRANCH  17  21
ENDBRANCH  16  17
ENDBRANCH  14  15
ENDBRANCH  13  14
ENDBRANCH  10  12
ENDBRANCH   7   8
ENDBRANCH   4   6
BRANCH   3  23
ATOM     23  O   UNL     1     -61.196 -58.161 -36.328  0.00  0.00    +0.000 OA
ATOM     24  H   UNL     1     -62.105 -58.376 -36.608  0.00  0.00    +0.000 HD
ENDBRANCH   3  23
ENDBRANCH   2   3
BRANCH   1  25
ATOM     25  C   UNL     1     -61.127 -58.451 -41.057  0.00  0.00    +0.000 C 
ATOM     26  C   UNL     1     -61.336 -58.249 -42.221  0.00  0.00    +0.000 C 
BRANCH  26  27
ATOM     27  C   UNL     1     -61.615 -57.984 -43.704  0.00  0.00    +0.000 C 
BRANCH  27  28
ATOM     28  N   UNL     1     -61.845 -57.741 -45.012  0.00  0.00    +0.000 N 
ATOM     29  C   UNL     1     -62.963 -57.210 -45.611  0.00  0.00    +0.000 C 
ATOM     30  O   UNL     1     -63.982 -56.854 -45.035  0.00  0.00    +0.000 OA
ATOM     31  H   UNL     1     -61.075 -57.982 -45.623  0.00  0.00    +0.000 HD
BRANCH  29  32
ATOM     32  C   UNL     1     -62.889 -57.075 -47.045  0.00  0.00    +0.000 C 
ATOM     33  C   UNL     1     -62.827 -56.986 -48.242  0.00  0.00    +0.000 C 
BRANCH  33  34
ATOM     34  C   UNL     1     -62.765 -56.898 -49.686  0.00  0.00    +0.000 C 
ATOM     35  O   UNL     1     -63.728 -56.410 -50.269  0.00  0.00    +0.000 OA
ATOM     36  N   UNL     1     -61.638 -57.408 -50.308  0.00  0.00    +0.000 N 
BRANCH  36  37
ATOM     37  C   UNL     1     -61.237 -57.342 -51.595  0.00  0.00    +0.000 C 
ATOM     38  C   UNL     1     -60.884 -57.284 -52.740  0.00  0.00    +0.000 C 
BRANCH  38  39
ATOM     39  C   UNL     1     -60.437 -57.216 -54.204  0.00  0.00    +0.000 C 
ATOM     40  C   UNL     1     -60.083 -57.160 -55.349  0.00  0.00    +0.000 C 
BRANCH  40  41
ATOM     41  C   UNL     1     -59.628 -57.085 -56.809  0.00  0.00    +0.000 C 
BRANCH  41  42
ATOM     42  N   UNL     1     -59.195 -57.014 -58.195  0.00  0.00    +0.000 NA
ATOM     43  H   UNL     1     -58.400 -57.631 -58.352  0.00  0.00    +0.000 HD
ATOM     44  H   UNL     1     -59.934 -57.344 -58.815  0.00  0.00    +0.000 HD
ENDBRANCH  41  42
ENDBRANCH  40  41
ENDBRANCH  38  39
ENDBRANCH  36  37
BRANCH  36  45
ATOM     45  O   UNL     1     -60.535 -57.741 -49.489  0.00  0.00    +0.000 OA
ATOM     46  H   UNL     1     -60.808 -58.611 -49.143  0.00  0.00    +0.000 HD
ENDBRANCH  36  45
ENDBRANCH  33  34
ENDBRANCH  29  32
ENDBRANCH  27  28
ENDBRANCH  26  27
ENDBRANCH   1  25
TORSDOF 19
ENDMDL
MODEL 5
REMARK VINA RESULT:      -4.9      2.447     22.110
REMARK  Name = Deferoxamine.pdbqt.pdb
REMARK  19 active torsions:
REMARK  status: ('A' for Active; 'I' for Inactive)
REMARK    1  A    between atoms: C_1  and  C_2
REMARK    2  A    between atoms: C_3  and  C_4
REMARK    3  A    between atoms: C_4  and  N_5
REMARK    4  A    between atoms: C_6  and  C_9
REMARK    5  A    between atoms: C_10  and  C_11
REMARK    6  A    between atoms: N_13  and  O_14
REMARK    7  A    between atoms: N_13  and  C_16
REMARK    8  A    between atoms: C_17  and  C_18
REMARK    9  A    between atoms: C_19  and  C_20
REMARK   10  A    between atoms: C_20  and  N_21
REMARK   11  A    between atoms: C_24  and  N_25
REMARK   12  A    between atoms: N_25  and  O_28
REMARK   13  A    between atoms: C_26  and  C_30
REMARK   14  A    between atoms: C_31  and  C_32
REMARK   15  A    between atoms: N_34  and  C_36
REMARK   16  A    between atoms: C_37  and  C_38
REMARK   17  A    between atoms: C_38  and  C_39
REMARK   18  A    between atoms: C_40  and  N_41
REMARK   19  A    between atoms: N_41  and  O_45
REMARK                            x       y       z     vdW  Elec       q    Type
REMARK                         _______ _______ _______ _____ _____    ______ ____
ROOT
ATOM      1  C   UNL     1     -69.492 -57.028 -33.678  0.00  0.00    +0.000 C 
ATOM      2  C   UNL     1     -69.060 -56.921 -34.793  0.00  0.00    +0.000 C 
ENDROOT
BRANCH   2   3
ATOM      3  N   UNL     1     -68.573 -56.800 -36.046  0.00  0.00    +0.000 N 
ATOM      4  C   UNL     1     -69.224 -56.622 -37.254  0.00  0.00    +0.000 C 
ATOM      5  O   UNL     1     -70.436 -56.714 -37.417  0.00  0.00    +0.000 OA
BRANCH   4   6
ATOM      6  C   UNL     1     -68.407 -56.339 -38.417  0.00  0.00    +0.000 C 
ATOM      7  C   UNL     1     -67.741 -56.108 -39.389  0.00  0.00    +0.000 C 
BRANCH   7   8
ATOM      8  C   UNL     1     -66.953 -55.847 -40.568  0.00  0.00    +0.000 C 
ATOM      9  O   UNL     1     -66.743 -54.688 -40.897  0.00  0.00    +0.000 OA
ATOM     10  N   UNL     1     -66.499 -56.966 -41.230  0.00  0.00    +0.000 N 
ATOM     11  H   UNL     1     -66.756 -57.858 -40.826  0.00  0.00    +0.000 HD
BRANCH  10  12
ATOM     12  C   UNL     1     -65.748 -57.046 -42.349  0.00  0.00    +0.000 C 
ATOM     13  C   UNL     1     -65.085 -57.121 -43.347  0.00  0.00    +0.000 C 
BRANCH  13  14
ATOM     14  C   UNL     1     -64.246 -57.220 -44.625  0.00  0.00    +0.000 C 
BRANCH  14  15
ATOM     15  C   UNL     1     -63.407 -57.327 -45.901  0.00  0.00    +0.000 C 
ATOM     16  C   UNL     1     -62.746 -57.410 -46.900  0.00  0.00    +0.000 C 
BRANCH  16  17
ATOM     17  N   UNL     1     -62.000 -57.504 -48.017  0.00  0.00    +0.000 N 
ATOM     18  C   UNL     1     -61.883 -56.668 -49.102  0.00  0.00    +0.000 C 
ATOM     19  O   UNL     1     -62.432 -55.605 -49.335  0.00  0.00    +0.000 OA
ATOM     20  C   UNL     1     -60.951 -57.046 -50.227  0.00  0.00    +0.000 C 
BRANCH  17  21
ATOM     21  O   UNL     1     -61.244 -58.704 -47.976  0.00  0.00    +0.000 OA
ATOM     22  H   UNL     1     -61.913 -59.380 -47.739  0.00  0.00    +0.000 HD
ENDBRANCH  17  21
ENDBRANCH  16  17
ENDBRANCH  14  15
ENDBRANCH  13  14
ENDBRANCH  10  12
ENDBRANCH   7   8
ENDBRANCH   4   6
BRANCH   3  23
ATOM     23  O   UNL     1     -67.205 -56.451 -35.985  0.00  0.00    +0.000 OA
ATOM     24  H   UNL     1     -67.045 -56.459 -35.023  0.00  0.00    +0.000 HD
ENDBRANCH   3  23
ENDBRANCH   2   3
BRANCH   1  25
ATOM     25  C   UNL     1     -70.041 -57.148 -32.254  0.00  0.00    +0.000 C 
ATOM     26  C   UNL     1     -70.459 -57.240 -31.133  0.00  0.00    +0.000 C 
BRANCH  26  27
ATOM     27  C   UNL     1     -70.980 -57.354 -29.696  0.00  0.00    +0.000 C 
BRANCH  27  28
ATOM     28  N   UNL     1     -71.422 -57.449 -28.424  0.00  0.00    +0.000 N 
ATOM     29  C   UNL     1     -71.772 -58.571 -27.710  0.00  0.00    +0.000 C 
ATOM     30  O   UNL     1     -71.741 -59.721 -28.125  0.00  0.00    +0.000 OA
ATOM     31  H   UNL     1     -71.494 -56.563 -27.940  0.00  0.00    +0.000 HD
BRANCH  29  32
ATOM     32  C   UNL     1     -72.207 -58.329 -26.356  0.00  0.00    +0.000 C 
ATOM     33  C   UNL     1     -72.563 -58.150 -25.223  0.00  0.00    +0.000 C 
BRANCH  33  34
ATOM     34  C   UNL     1     -72.978 -57.949 -23.849  0.00  0.00    +0.000 C 
ATOM     35  O   UNL     1     -72.491 -58.683 -22.995  0.00  0.00    +0.000 OA
ATOM     36  N   UNL     1     -73.922 -56.966 -23.605  0.00  0.00    +0.000 N 
BRANCH  36  37
ATOM     37  C   UNL     1     -74.386 -56.461 -22.443  0.00  0.00    +0.000 C 
ATOM     38  C   UNL     1     -74.799 -56.009 -21.411  0.00  0.00    +0.000 C 
BRANCH  38  39
ATOM     39  C   UNL     1     -75.322 -55.426 -20.095  0.00  0.00    +0.000 C 
ATOM     40  C   UNL     1     -75.726 -54.967 -19.062  0.00  0.00    +0.000 C 
BRANCH  40  41
ATOM     41  C   UNL     1     -76.239 -54.379 -17.745  0.00  0.00    +0.000 C 
BRANCH  41  42
ATOM     42  N   UNL     1     -76.725 -53.821 -16.494  0.00  0.00    +0.000 NA
ATOM     43  H   UNL     1     -76.747 -54.536 -15.770  0.00  0.00    +0.000 HD
ATOM     44  H   UNL     1     -76.091 -53.098 -16.157  0.00  0.00    +0.000 HD
ENDBRANCH  41  42
ENDBRANCH  40  41
ENDBRANCH  38  39
ENDBRANCH  36  37
BRANCH  36  45
ATOM     45  O   UNL     1     -74.223 -56.074 -24.659  0.00  0.00    +0.000 OA
ATOM     46  H   UNL     1     -73.338 -55.730 -24.880  0.00  0.00    +0.000 HD
ENDBRANCH  36  45
ENDBRANCH  33  34
ENDBRANCH  29  32
ENDBRANCH  27  28
ENDBRANCH  26  27
ENDBRANCH   1  25
TORSDOF 19
ENDMDL
MODEL 6
REMARK VINA RESULT:      -4.9     10.470     12.355
REMARK  Name = Deferoxamine.pdbqt.pdb
REMARK  19 active torsions:
REMARK  status: ('A' for Active; 'I' for Inactive)
REMARK    1  A    between atoms: C_1  and  C_2
REMARK    2  A    between atoms: C_3  and  C_4
REMARK    3  A    between atoms: C_4  and  N_5
REMARK    4  A    between atoms: C_6  and  C_9
REMARK    5  A    between atoms: C_10  and  C_11
REMARK    6  A    between atoms: N_13  and  O_14
REMARK    7  A    between atoms: N_13  and  C_16
REMARK    8  A    between atoms: C_17  and  C_18
REMARK    9  A    between atoms: C_19  and  C_20
REMARK   10  A    between atoms: C_20  and  N_21
REMARK   11  A    between atoms: C_24  and  N_25
REMARK   12  A    between atoms: N_25  and  O_28
REMARK   13  A    between atoms: C_26  and  C_30
REMARK   14  A    between atoms: C_31  and  C_32
REMARK   15  A    between atoms: N_34  and  C_36
REMARK   16  A    between atoms: C_37  and  C_38
REMARK   17  A    between atoms: C_38  and  C_39
REMARK   18  A    between atoms: C_40  and  N_41
REMARK   19  A    between atoms: N_41  and  O_45
REMARK                            x       y       z     vdW  Elec       q    Type
REMARK                         _______ _______ _______ _____ _____    ______ ____
ROOT
ATOM      1  C   UNL     1     -60.849 -58.812 -39.624  0.00  0.00    +0.000 C 
ATOM      2  C   UNL     1     -60.649 -59.016 -38.457  0.00  0.00    +0.000 C 
ENDROOT
BRANCH   2   3
ATOM      3  N   UNL     1     -60.425 -59.244 -37.146  0.00  0.00    +0.000 N 
ATOM      4  C   UNL     1     -59.407 -59.933 -36.511  0.00  0.00    +0.000 C 
ATOM      5  O   UNL     1     -58.576 -60.635 -37.078  0.00  0.00    +0.000 OA
BRANCH   4   6
ATOM      6  C   UNL     1     -59.341 -59.845 -35.067  0.00  0.00    +0.000 C 
ATOM      7  C   UNL     1     -59.296 -59.762 -33.869  0.00  0.00    +0.000 C 
BRANCH   7   8
ATOM      8  C   UNL     1     -59.246 -59.638 -32.433  0.00  0.00    +0.000 C 
ATOM      9  O   UNL     1     -58.899 -60.602 -31.767  0.00  0.00    +0.000 OA
ATOM     10  N   UNL     1     -59.606 -58.405 -31.938  0.00  0.00    +0.000 N 
ATOM     11  H   UNL     1     -59.864 -57.706 -32.624  0.00  0.00    +0.000 HD
BRANCH  10  12
ATOM     12  C   UNL     1     -59.659 -57.986 -30.655  0.00  0.00    +0.000 C 
ATOM     13  C   UNL     1     -59.710 -57.617 -29.514  0.00  0.00    +0.000 C 
BRANCH  13  14
ATOM     14  C   UNL     1     -59.780 -57.155 -28.056  0.00  0.00    +0.000 C 
BRANCH  14  15
ATOM     15  C   UNL     1     -59.840 -56.695 -26.597  0.00  0.00    +0.000 C 
ATOM     16  C   UNL     1     -59.890 -56.331 -25.453  0.00  0.00    +0.000 C 
BRANCH  16  17
ATOM     17  N   UNL     1     -59.950 -55.919 -24.172  0.00  0.00    +0.000 N 
ATOM     18  C   UNL     1     -60.981 -55.375 -23.443  0.00  0.00    +0.000 C 
ATOM     19  O   UNL     1     -62.127 -55.123 -23.773  0.00  0.00    +0.000 OA
ATOM     20  C   UNL     1     -60.746 -55.001 -22.001  0.00  0.00    +0.000 C 
BRANCH  17  21
ATOM     21  O   UNL     1     -58.688 -56.118 -23.556  0.00  0.00    +0.000 OA
ATOM     22  H   UNL     1     -58.860 -56.852 -22.930  0.00  0.00    +0.000 HD
ENDBRANCH  17  21
ENDBRANCH  16  17
ENDBRANCH  14  15
ENDBRANCH  13  14
ENDBRANCH  10  12
ENDBRANCH   7   8
ENDBRANCH   4   6
BRANCH   3  23
ATOM     23  O   UNL     1     -61.163 -58.316 -36.377  0.00  0.00    +0.000 OA
ATOM     24  H   UNL     1     -60.997 -57.487 -36.862  0.00  0.00    +0.000 HD
ENDBRANCH   3  23
ENDBRANCH   2   3
BRANCH   1  25
ATOM     25  C   UNL     1     -61.099 -58.537 -41.109  0.00  0.00    +0.000 C 
ATOM     26  C   UNL     1     -61.308 -58.326 -42.272  0.00  0.00    +0.000 C 
BRANCH  26  27
ATOM     27  C   UNL     1     -61.588 -58.062 -43.755  0.00  0.00    +0.000 C 
BRANCH  27  28
ATOM     28  N   UNL     1     -61.850 -57.820 -45.058  0.00  0.00    +0.000 N 
ATOM     29  C   UNL     1     -63.007 -57.358 -45.637  0.00  0.00    +0.000 C 
ATOM     30  O   UNL     1     -64.040 -57.076 -45.046  0.00  0.00    +0.000 OA
ATOM     31  H   UNL     1     -61.073 -58.003 -45.680  0.00  0.00    +0.000 HD
BRANCH  29  32
ATOM     32  C   UNL     1     -62.959 -57.203 -47.070  0.00  0.00    +0.000 C 
ATOM     33  C   UNL     1     -62.904 -57.092 -48.265  0.00  0.00    +0.000 C 
BRANCH  33  34
ATOM     34  C   UNL     1     -62.832 -56.980 -49.708  0.00  0.00    +0.000 C 
ATOM     35  O   UNL     1     -61.766 -57.259 -50.248  0.00  0.00    +0.000 OA
ATOM     36  N   UNL     1     -63.962 -56.530 -50.370  0.00  0.00    +0.000 N 
BRANCH  36  37
ATOM     37  C   UNL     1     -64.240 -56.462 -51.688  0.00  0.00    +0.000 C 
ATOM     38  C   UNL     1     -64.484 -56.401 -52.861  0.00  0.00    +0.000 C 
BRANCH  38  39
ATOM     39  C   UNL     1     -64.791 -56.318 -54.360  0.00  0.00    +0.000 C 
ATOM     40  C   UNL     1     -65.026 -56.256 -55.535  0.00  0.00    +0.000 C 
BRANCH  40  41
ATOM     41  C   UNL     1     -65.322 -56.178 -57.035  0.00  0.00    +0.000 C 
BRANCH  41  42
ATOM     42  N   UNL     1     -65.604 -56.103 -58.460  0.00  0.00    +0.000 NA
ATOM     43  H   UNL     1     -65.705 -57.038 -58.851  0.00  0.00    +0.000 HD
ATOM     44  H   UNL     1     -66.492 -55.632 -58.622  0.00  0.00    +0.000 HD
ENDBRANCH  41  42
ENDBRANCH  40  41
ENDBRANCH  38  39
ENDBRANCH  36  37
BRANCH  36  45
ATOM     45  O   UNL     1     -65.164 -56.455 -49.631  0.00  0.00    +0.000 OA
ATOM     46  H   UNL     1     -64.912 -55.845 -48.913  0.00  0.00    +0.000 HD
ENDBRANCH  36  45
ENDBRANCH  33  34
ENDBRANCH  29  32
ENDBRANCH  27  28
ENDBRANCH  26  27
ENDBRANCH   1  25
TORSDOF 19
ENDMDL
MODEL 7
REMARK VINA RESULT:      -4.8      2.300      3.622
REMARK  Name = Deferoxamine.pdbqt.pdb
REMARK  19 active torsions:
REMARK  status: ('A' for Active; 'I' for Inactive)
REMARK    1  A    between atoms: C_1  and  C_2
REMARK    2  A    between atoms: C_3  and  C_4
REMARK    3  A    between atoms: C_4  and  N_5
REMARK    4  A    between atoms: C_6  and  C_9
REMARK    5  A    between atoms: C_10  and  C_11
REMARK    6  A    between atoms: N_13  and  O_14
REMARK    7  A    between atoms: N_13  and  C_16
REMARK    8  A    between atoms: C_17  and  C_18
REMARK    9  A    between atoms: C_19  and  C_20
REMARK   10  A    between atoms: C_20  and  N_21
REMARK   11  A    between atoms: C_24  and  N_25
REMARK   12  A    between atoms: N_25  and  O_28
REMARK   13  A    between atoms: C_26  and  C_30
REMARK   14  A    between atoms: C_31  and  C_32
REMARK   15  A    between atoms: N_34  and  C_36
REMARK   16  A    between atoms: C_37  and  C_38
REMARK   17  A    between atoms: C_38  and  C_39
REMARK   18  A    between atoms: C_40  and  N_41
REMARK   19  A    between atoms: N_41  and  O_45
REMARK                            x       y       z     vdW  Elec       q    Type
REMARK                         _______ _______ _______ _____ _____    ______ ____
ROOT
ATOM      1  C   UNL     1     -68.588 -56.964 -36.364  0.00  0.00    +0.000 C 
ATOM      2  C   UNL     1     -69.009 -56.903 -35.241  0.00  0.00    +0.000 C 
ENDROOT
BRANCH   2   3
ATOM      3  N   UNL     1     -69.483 -56.835 -33.980  0.00  0.00    +0.000 N 
ATOM      4  C   UNL     1     -68.916 -57.233 -32.781  0.00  0.00    +0.000 C 
ATOM      5  O   UNL     1     -67.895 -57.904 -32.677  0.00  0.00    +0.000 OA
BRANCH   4   6
ATOM      6  C   UNL     1     -69.602 -56.856 -31.562  0.00  0.00    +0.000 C 
ATOM      7  C   UNL     1     -70.183 -56.545 -30.557  0.00  0.00    +0.000 C 
BRANCH   7   8
ATOM      8  C   UNL     1     -70.897 -56.162 -29.364  0.00  0.00    +0.000 C 
ATOM      9  O   UNL     1     -70.979 -54.977 -29.077  0.00  0.00    +0.000 OA
ATOM     10  N   UNL     1     -71.435 -57.204 -28.643  0.00  0.00    +0.000 N 
ATOM     11  H   UNL     1     -71.283 -58.132 -29.018  0.00  0.00    +0.000 HD
BRANCH  10  12
ATOM     12  C   UNL     1     -72.149 -57.167 -27.497  0.00  0.00    +0.000 C 
ATOM     13  C   UNL     1     -72.785 -57.129 -26.480  0.00  0.00    +0.000 C 
BRANCH  13  14
ATOM     14  C   UNL     1     -73.603 -57.074 -25.187  0.00  0.00    +0.000 C 
BRANCH  14  15
ATOM     15  C   UNL     1     -74.416 -57.012 -23.890  0.00  0.00    +0.000 C 
ATOM     16  C   UNL     1     -75.054 -56.966 -22.875  0.00  0.00    +0.000 C 
BRANCH  16  17
ATOM     17  N   UNL     1     -75.772 -56.921 -21.736  0.00  0.00    +0.000 N 
ATOM     18  C   UNL     1     -75.939 -55.920 -20.808  0.00  0.00    +0.000 C 
ATOM     19  O   UNL     1     -75.476 -54.793 -20.779  0.00  0.00    +0.000 OA
ATOM     20  C   UNL     1     -76.818 -56.167 -19.608  0.00  0.00    +0.000 C 
BRANCH  17  21
ATOM     21  O   UNL     1     -76.428 -58.165 -21.546  0.00  0.00    +0.000 OA
ATOM     22  H   UNL     1     -76.460 -58.539 -22.450  0.00  0.00    +0.000 HD
ENDBRANCH  17  21
ENDBRANCH  16  17
ENDBRANCH  14  15
ENDBRANCH  13  14
ENDBRANCH  10  12
ENDBRANCH   7   8
ENDBRANCH   4   6
BRANCH   3  23
ATOM     23  O   UNL     1     -70.534 -55.892 -33.923  0.00  0.00    +0.000 OA
ATOM     24  H   UNL     1     -70.652 -55.677 -34.867  0.00  0.00    +0.000 HD
ENDBRANCH   3  23
ENDBRANCH   2   3
BRANCH   1  25
ATOM     25  C   UNL     1     -68.062 -57.052 -37.799  0.00  0.00    +0.000 C 
ATOM     26  C   UNL     1     -67.637 -57.125 -38.919  0.00  0.00    +0.000 C 
BRANCH  26  27
ATOM     27  C   UNL     1     -67.082 -57.222 -40.344  0.00  0.00    +0.000 C 
BRANCH  27  28
ATOM     28  N   UNL     1     -66.598 -57.325 -41.601  0.00  0.00    +0.000 N 
ATOM     29  C   UNL     1     -66.591 -56.387 -42.606  0.00  0.00    +0.000 C 
ATOM     30  O   UNL     1     -67.041 -55.253 -42.529  0.00  0.00    +0.000 OA
ATOM     31  H   UNL     1     -66.180 -58.222 -41.814  0.00  0.00    +0.000 HD
BRANCH  29  32
ATOM     32  C   UNL     1     -65.989 -56.816 -43.845  0.00  0.00    +0.000 C 
ATOM     33  C   UNL     1     -65.476 -57.153 -44.877  0.00  0.00    +0.000 C 
BRANCH  33  34
ATOM     34  C   UNL     1     -64.839 -57.545 -46.118  0.00  0.00    +0.000 C 
ATOM     35  O   UNL     1     -65.496 -58.215 -46.908  0.00  0.00    +0.000 OA
ATOM     36  N   UNL     1     -63.520 -57.168 -46.305  0.00  0.00    +0.000 N 
BRANCH  36  37
ATOM     37  C   UNL     1     -62.724 -57.259 -47.391  0.00  0.00    +0.000 C 
ATOM     38  C   UNL     1     -62.014 -57.338 -48.355  0.00  0.00    +0.000 C 
BRANCH  38  39
ATOM     39  C   UNL     1     -61.108 -57.432 -49.587  0.00  0.00    +0.000 C 
ATOM     40  C   UNL     1     -60.394 -57.508 -50.548  0.00  0.00    +0.000 C 
BRANCH  40  41
ATOM     41  C   UNL     1     -59.480 -57.606 -51.772  0.00  0.00    +0.000 C 
BRANCH  41  42
ATOM     42  N   UNL     1     -58.612 -57.699 -52.935  0.00  0.00    +0.000 NA
ATOM     43  H   UNL     1     -57.814 -57.075 -52.834  0.00  0.00    +0.000 HD
ATOM     44  H   UNL     1     -58.226 -58.639 -53.017  0.00  0.00    +0.000 HD
ENDBRANCH  41  42
ENDBRANCH  40  41
ENDBRANCH  38  39
ENDBRANCH  36  37
BRANCH  36  45
ATOM     45  O   UNL     1     -62.976 -56.227 -45.402  0.00  0.00    +0.000 OA
ATOM     46  H   UNL     1     -63.361 -56.525 -44.557  0.00  0.00    +0.000 HD
ENDBRANCH  36  45
ENDBRANCH  33  34
ENDBRANCH  29  32
ENDBRANCH  27  28
ENDBRANCH  26  27
ENDBRANCH   1  25
TORSDOF 19
ENDMDL
MODEL 8
REMARK VINA RESULT:      -4.7      2.917      6.255
REMARK  Name = Deferoxamine.pdbqt.pdb
REMARK  19 active torsions:
REMARK  status: ('A' for Active; 'I' for Inactive)
REMARK    1  A    between atoms: C_1  and  C_2
REMARK    2  A    between atoms: C_3  and  C_4
REMARK    3  A    between atoms: C_4  and  N_5
REMARK    4  A    between atoms: C_6  and  C_9
REMARK    5  A    between atoms: C_10  and  C_11
REMARK    6  A    between atoms: N_13  and  O_14
REMARK    7  A    between atoms: N_13  and  C_16
REMARK    8  A    between atoms: C_17  and  C_18
REMARK    9  A    between atoms: C_19  and  C_20
REMARK   10  A    between atoms: C_20  and  N_21
REMARK   11  A    between atoms: C_24  and  N_25
REMARK   12  A    between atoms: N_25  and  O_28
REMARK   13  A    between atoms: C_26  and  C_30
REMARK   14  A    between atoms: C_31  and  C_32
REMARK   15  A    between atoms: N_34  and  C_36
REMARK   16  A    between atoms: C_37  and  C_38
REMARK   17  A    between atoms: C_38  and  C_39
REMARK   18  A    between atoms: C_40  and  N_41
REMARK   19  A    between atoms: N_41  and  O_45
REMARK                            x       y       z     vdW  Elec       q    Type
REMARK                         _______ _______ _______ _____ _____    ______ ____
ROOT
ATOM      1  C   UNL     1     -67.693 -56.823 -39.031  0.00  0.00    +0.000 C 
ATOM      2  C   UNL     1     -68.256 -56.851 -37.970  0.00  0.00    +0.000 C 
ENDROOT
BRANCH   2   3
ATOM      3  N   UNL     1     -68.890 -56.883 -36.779  0.00  0.00    +0.000 N 
ATOM      4  C   UNL     1     -68.411 -57.155 -35.509  0.00  0.00    +0.000 C 
ATOM      5  O   UNL     1     -67.296 -57.601 -35.261  0.00  0.00    +0.000 OA
BRANCH   4   6
ATOM      6  C   UNL     1     -69.308 -56.926 -34.395  0.00  0.00    +0.000 C 
ATOM      7  C   UNL     1     -70.061 -56.747 -33.476  0.00  0.00    +0.000 C 
BRANCH   7   8
ATOM      8  C   UNL     1     -70.983 -56.535 -32.388  0.00  0.00    +0.000 C 
ATOM      9  O   UNL     1     -72.039 -55.959 -32.608  0.00  0.00    +0.000 OA
ATOM     10  N   UNL     1     -70.570 -57.021 -31.167  0.00  0.00    +0.000 N 
ATOM     11  H   UNL     1     -69.669 -57.480 -31.151  0.00  0.00    +0.000 HD
BRANCH  10  12
ATOM     12  C   UNL     1     -71.204 -56.977 -29.975  0.00  0.00    +0.000 C 
ATOM     13  C   UNL     1     -71.773 -56.936 -28.919  0.00  0.00    +0.000 C 
BRANCH  13  14
ATOM     14  C   UNL     1     -72.506 -56.883 -27.575  0.00  0.00    +0.000 C 
BRANCH  14  15
ATOM     15  C   UNL     1     -73.233 -56.825 -26.229  0.00  0.00    +0.000 C 
ATOM     16  C   UNL     1     -73.801 -56.783 -25.172  0.00  0.00    +0.000 C 
BRANCH  16  17
ATOM     17  N   UNL     1     -74.435 -56.739 -23.984  0.00  0.00    +0.000 N 
ATOM     18  C   UNL     1     -73.980 -56.961 -22.706  0.00  0.00    +0.000 C 
ATOM     19  O   UNL     1     -72.866 -57.257 -22.311  0.00  0.00    +0.000 OA
ATOM     20  C   UNL     1     -74.942 -56.841 -21.551  0.00  0.00    +0.000 C 
BRANCH  17  21
ATOM     21  O   UNL     1     -75.798 -56.403 -24.192  0.00  0.00    +0.000 OA
ATOM     22  H   UNL     1     -76.147 -57.180 -24.675  0.00  0.00    +0.000 HD
ENDBRANCH  17  21
ENDBRANCH  16  17
ENDBRANCH  14  15
ENDBRANCH  13  14
ENDBRANCH  10  12
ENDBRANCH   7   8
ENDBRANCH   4   6
BRANCH   3  23
ATOM     23  O   UNL     1     -70.109 -56.176 -36.879  0.00  0.00    +0.000 OA
ATOM     24  H   UNL     1     -70.698 -56.857 -37.254  0.00  0.00    +0.000 HD
ENDBRANCH   3  23
ENDBRANCH   2   3
BRANCH   1  25
ATOM     25  C   UNL     1     -66.981 -56.772 -40.385  0.00  0.00    +0.000 C 
ATOM     26  C   UNL     1     -66.421 -56.719 -41.444  0.00  0.00    +0.000 C 
BRANCH  26  27
ATOM     27  C   UNL     1     -65.703 -56.637 -42.796  0.00  0.00    +0.000 C 
BRANCH  27  28
ATOM     28  N   UNL     1     -65.073 -56.583 -43.989  0.00  0.00    +0.000 N 
ATOM     29  C   UNL     1     -63.791 -56.962 -44.310  0.00  0.00    +0.000 C 
ATOM     30  O   UNL     1     -62.969 -57.430 -43.536  0.00  0.00    +0.000 OA
ATOM     31  H   UNL     1     -65.640 -56.217 -44.744  0.00  0.00    +0.000 HD
BRANCH  29  32
ATOM     32  C   UNL     1     -63.421 -56.775 -45.692  0.00  0.00    +0.000 C 
ATOM     33  C   UNL     1     -63.116 -56.597 -46.840  0.00  0.00    +0.000 C 
BRANCH  33  34
ATOM     34  C   UNL     1     -62.741 -56.361 -48.219  0.00  0.00    +0.000 C 
ATOM     35  O   UNL     1     -63.200 -55.366 -48.772  0.00  0.00    +0.000 OA
ATOM     36  N   UNL     1     -61.919 -57.296 -48.825  0.00  0.00    +0.000 N 
BRANCH  36  37
ATOM     37  C   UNL     1     -61.299 -57.277 -50.023  0.00  0.00    +0.000 C 
ATOM     38  C   UNL     1     -60.744 -57.259 -51.087  0.00  0.00    +0.000 C 
BRANCH  38  39
ATOM     39  C   UNL     1     -60.034 -57.228 -52.444  0.00  0.00    +0.000 C 
ATOM     40  C   UNL     1     -59.481 -57.201 -53.509  0.00  0.00    +0.000 C 
BRANCH  40  41
ATOM     41  C   UNL     1     -58.778 -57.162 -54.868  0.00  0.00    +0.000 C 
BRANCH  41  42
ATOM     42  N   UNL     1     -58.110 -57.124 -56.159  0.00  0.00    +0.000 NA
ATOM     43  H   UNL     1     -57.127 -56.882 -56.043  0.00  0.00    +0.000 HD
ATOM     44  H   UNL     1     -58.123 -58.046 -56.593  0.00  0.00    +0.000 HD
ENDBRANCH  41  42
ENDBRANCH  40  41
ENDBRANCH  38  39
ENDBRANCH  36  37
BRANCH  36  45
ATOM     45  O   UNL     1     -61.311 -58.265 -47.996  0.00  0.00    +0.000 OA
ATOM     46  H   UNL     1     -61.307 -59.045 -48.580  0.00  0.00    +0.000 HD
ENDBRANCH  36  45
ENDBRANCH  33  34
ENDBRANCH  29  32
ENDBRANCH  27  28
ENDBRANCH  26  27
ENDBRANCH   1  25
TORSDOF 19
ENDMDL
MODEL 9
REMARK VINA RESULT:      -4.6      5.452     24.825
REMARK  Name = Deferoxamine.pdbqt.pdb
REMARK  19 active torsions:
REMARK  status: ('A' for Active; 'I' for Inactive)
REMARK    1  A    between atoms: C_1  and  C_2
REMARK    2  A    between atoms: C_3  and  C_4
REMARK    3  A    between atoms: C_4  and  N_5
REMARK    4  A    between atoms: C_6  and  C_9
REMARK    5  A    between atoms: C_10  and  C_11
REMARK    6  A    between atoms: N_13  and  O_14
REMARK    7  A    between atoms: N_13  and  C_16
REMARK    8  A    between atoms: C_17  and  C_18
REMARK    9  A    between atoms: C_19  and  C_20
REMARK   10  A    between atoms: C_20  and  N_21
REMARK   11  A    between atoms: C_24  and  N_25
REMARK   12  A    between atoms: N_25  and  O_28
REMARK   13  A    between atoms: C_26  and  C_30
REMARK   14  A    between atoms: C_31  and  C_32
REMARK   15  A    between atoms: N_34  and  C_36
REMARK   16  A    between atoms: C_37  and  C_38
REMARK   17  A    between atoms: C_38  and  C_39
REMARK   18  A    between atoms: C_40  and  N_41
REMARK   19  A    between atoms: N_41  and  O_45
REMARK                            x       y       z     vdW  Elec       q    Type
REMARK                         _______ _______ _______ _____ _____    ______ ____
ROOT
ATOM      1  C   UNL     1     -66.115 -56.873 -42.943  0.00  0.00    +0.000 C 
ATOM      2  C   UNL     1     -65.671 -56.932 -44.058  0.00  0.00    +0.000 C 
ENDROOT
BRANCH   2   3
ATOM      3  N   UNL     1     -65.173 -56.996 -45.310  0.00  0.00    +0.000 N 
ATOM      4  C   UNL     1     -63.876 -57.178 -45.757  0.00  0.00    +0.000 C 
ATOM      5  O   UNL     1     -62.878 -57.145 -45.045  0.00  0.00    +0.000 OA
BRANCH   4   6
ATOM      6  C   UNL     1     -63.682 -57.389 -47.177  0.00  0.00    +0.000 C 
ATOM      7  C   UNL     1     -63.536 -57.564 -48.357  0.00  0.00    +0.000 C 
BRANCH   7   8
ATOM      8  C   UNL     1     -63.380 -57.788 -49.773  0.00  0.00    +0.000 C 
ATOM      9  O   UNL     1     -64.188 -58.498 -50.354  0.00  0.00    +0.000 OA
ATOM     10  N   UNL     1     -62.301 -57.157 -50.350  0.00  0.00    +0.000 N 
ATOM     11  H   UNL     1     -61.728 -56.597 -49.732  0.00  0.00    +0.000 HD
BRANCH  10  12
ATOM     12  C   UNL     1     -61.896 -57.173 -51.639  0.00  0.00    +0.000 C 
ATOM     13  C   UNL     1     -61.533 -57.192 -52.782  0.00  0.00    +0.000 C 
BRANCH  13  14
ATOM     14  C   UNL     1     -61.066 -57.226 -54.241  0.00  0.00    +0.000 C 
BRANCH  14  15
ATOM     15  C   UNL     1     -60.598 -57.251 -55.698  0.00  0.00    +0.000 C 
ATOM     16  C   UNL     1     -60.228 -57.272 -56.841  0.00  0.00    +0.000 C 
BRANCH  16  17
ATOM     17  N   UNL     1     -59.811 -57.303 -58.121  0.00  0.00    +0.000 N 
ATOM     18  C   UNL     1     -60.446 -57.707 -59.272  0.00  0.00    +0.000 C 
ATOM     19  O   UNL     1     -61.570 -58.147 -59.434  0.00  0.00    +0.000 OA
ATOM     20  C   UNL     1     -59.709 -57.627 -60.586  0.00  0.00    +0.000 C 
BRANCH  17  21
ATOM     21  O   UNL     1     -58.479 -56.820 -58.191  0.00  0.00    +0.000 OA
ATOM     22  H   UNL     1     -58.123 -57.019 -57.301  0.00  0.00    +0.000 HD
ENDBRANCH  17  21
ENDBRANCH  16  17
ENDBRANCH  14  15
ENDBRANCH  13  14
ENDBRANCH  10  12
ENDBRANCH   7   8
ENDBRANCH   4   6
BRANCH   3  23
ATOM     23  O   UNL     1     -66.220 -57.274 -46.218  0.00  0.00    +0.000 OA
ATOM     24  H   UNL     1     -66.843 -57.766 -45.650  0.00  0.00    +0.000 HD
ENDBRANCH   3  23
ENDBRANCH   2   3
BRANCH   1  25
ATOM     25  C   UNL     1     -66.689 -56.787 -41.527  0.00  0.00    +0.000 C 
ATOM     26  C   UNL     1     -67.148 -56.728 -40.420  0.00  0.00    +0.000 C 
BRANCH  26  27
ATOM     27  C   UNL     1     -67.745 -56.662 -39.010  0.00  0.00    +0.000 C 
BRANCH  27  28
ATOM     28  N   UNL     1     -68.288 -56.601 -37.775  0.00  0.00    +0.000 N 
ATOM     29  C   UNL     1     -68.208 -57.511 -36.748  0.00  0.00    +0.000 C 
ATOM     30  O   UNL     1     -67.606 -58.575 -36.780  0.00  0.00    +0.000 OA
ATOM     31  H   UNL     1     -68.819 -55.759 -37.594  0.00  0.00    +0.000 HD
BRANCH  29  32
ATOM     32  C   UNL     1     -68.906 -57.141 -35.541  0.00  0.00    +0.000 C 
ATOM     33  C   UNL     1     -69.468 -56.839 -34.523  0.00  0.00    +0.000 C 
BRANCH  33  34
ATOM     34  C   UNL     1     -70.126 -56.469 -33.287  0.00  0.00    +0.000 C 
ATOM     35  O   UNL     1     -70.824 -55.460 -33.293  0.00  0.00    +0.000 OA
ATOM     36  N   UNL     1     -69.888 -57.260 -32.176  0.00  0.00    +0.000 N 
BRANCH  36  37
ATOM     37  C   UNL     1     -70.456 -57.253 -30.952  0.00  0.00    +0.000 C 
ATOM     38  C   UNL     1     -70.959 -57.246 -29.863  0.00  0.00    +0.000 C 
BRANCH  38  39
ATOM     39  C   UNL     1     -71.595 -57.240 -28.469  0.00  0.00    +0.000 C 
ATOM     40  C   UNL     1     -72.097 -57.232 -27.379  0.00  0.00    +0.000 C 
BRANCH  40  41
ATOM     41  C   UNL     1     -72.741 -57.219 -25.990  0.00  0.00    +0.000 C 
BRANCH  41  42
ATOM     42  N   UNL     1     -73.353 -57.208 -24.672  0.00  0.00    +0.000 NA
ATOM     43  H   UNL     1     -73.009 -56.419 -24.127  0.00  0.00    +0.000 HD
ATOM     44  H   UNL     1     -74.361 -57.078 -24.749  0.00  0.00    +0.000 HD
ENDBRANCH  41  42
ENDBRANCH  40  41
ENDBRANCH  38  39
ENDBRANCH  36  37
BRANCH  36  45
ATOM     45  O   UNL     1     -69.234 -58.496 -32.384  0.00  0.00    +0.000 OA
ATOM     46  H   UNL     1     -68.470 -58.222 -32.924  0.00  0.00    +0.000 HD
ENDBRANCH  36  45
ENDBRANCH  33  34
ENDBRANCH  29  32
ENDBRANCH  27  28
ENDBRANCH  26  27
ENDBRANCH   1  25
TORSDOF 19
ENDMDL
