MODEL 1
REMARK VINA RESULT:      -5.8      0.000      0.000
REMARK  Name = 
REMARK  25 active torsions:
REMARK  status: ('A' for Active; 'I' for Inactive)
REMARK    1  A    between atoms: O_2  and  C_17
REMARK    2  A    between atoms: O_2  and  C_36
REMARK    3  A    between atoms: O_3  and  C_20
REMARK    4  A    between atoms: O_3  and  C_37
REMARK    5  A    between atoms: O_4  and  C_21
REMARK    6  A    between atoms: O_5  and  C_22
REMARK    7  A    between atoms: O_7  and  C_30
REMARK    8  A    between atoms: O_8  and  C_31
REMARK    9  A    between atoms: O_8  and  C_39
REMARK   10  A    between atoms: O_12  and  C_41
REMARK   11  A    between atoms: O_13  and  C_51
REMARK   12  A    between atoms: O_13  and  C_55
REMARK   13  A    between atoms: N_15  and  C_44
REMARK   14  A    between atoms: C_18  and  C_29
REMARK   15  A    between atoms: C_24  and  C_33
REMARK   16  A    between atoms: C_24  and  C_34
REMARK   17  A    between atoms: C_32  and  C_35
REMARK   18  A    between atoms: C_36  and  C_38
REMARK   19  A    between atoms: C_37  and  C_40
REMARK   20  A    between atoms: C_39  and  C_41
REMARK   21  A    between atoms: C_41  and  C_44
REMARK   22  A    between atoms: C_44  and  C_48
REMARK   23  A    between atoms: C_55  and  C_56
REMARK   24  A    between atoms: C_55  and  C_57
REMARK   25  A    between atoms: C_55  and  C_58
REMARK                            x       y       z     vdW  Elec       q    Type
REMARK                         _______ _______ _______ _____ _____    ______ ____
ROOT
ATOM      1  O   UNL     1     -61.777 -44.105 -48.615  0.00  0.00    +0.000 OA
ATOM      2  O   UNL     1     -68.292 -45.675 -49.115  0.00  0.00    +0.000 OA
ATOM      3  C   UNL     1     -64.080 -45.991 -50.346  0.00  0.00    +0.000 C 
ATOM      4  C   UNL     1     -63.009 -44.871 -50.192  0.00  0.00    +0.000 C 
ATOM      5  C   UNL     1     -65.752 -45.225 -49.877  0.00  0.00    +0.000 C 
ATOM      6  C   UNL     1     -63.088 -44.732 -48.617  0.00  0.00    +0.000 C 
ATOM      7  C   UNL     1     -63.844 -46.978 -51.910  0.00  0.00    +0.000 C 
ATOM      8  C   UNL     1     -64.621 -48.395 -52.898  0.00  0.00    +0.000 C 
ATOM      9  C   UNL     1     -65.556 -44.789 -48.366  0.00  0.00    +0.000 C 
ATOM     10  C   UNL     1     -64.269 -43.958 -48.071  0.00  0.00    +0.000 C 
ATOM     11  C   UNL     1     -66.215 -49.147 -52.689  0.00  0.00    +0.000 C 
ATOM     12  C   UNL     1     -61.482 -44.961 -49.790  0.00  0.00    +0.000 C 
ATOM     13  C   UNL     1     -67.458 -46.014 -49.984  0.00  0.00    +0.000 C 
ATOM     14  C   UNL     1     -64.766 -47.840 -54.389  0.00  0.00    +0.000 C 
ATOM     15  C   UNL     1     -67.388 -48.057 -52.700  0.00  0.00    +0.000 C 
ATOM     16  C   UNL     1     -66.016 -43.850 -50.621  0.00  0.00    +0.000 C 
ATOM     17  C   UNL     1     -68.113 -47.284 -51.264  0.00  0.00    +0.000 C 
ATOM     18  C   UNL     1     -66.178 -47.239 -54.830  0.00  0.00    +0.000 C 
ATOM     19  C   UNL     1     -67.431 -47.374 -53.893  0.00  0.00    +0.000 C 
ATOM     20  C   UNL     1     -66.456 -50.104 -53.962  0.00  0.00    +0.000 C 
ATOM     21  C   UNL     1     -66.392 -50.283 -51.632  0.00  0.00    +0.000 C 
ATOM     22  C   UNL     1     -68.583 -46.474 -54.269  0.00  0.00    +0.000 C 
ENDROOT
BRANCH  17  23
ATOM     23  O   UNL     1     -68.914 -48.304 -50.666  0.00  0.00    +0.000 OA
ATOM     24  H   UNL     1     -69.188 -48.875 -51.408  0.00  0.00    +0.000 HD
ENDBRANCH  17  23
BRANCH   9  25
ATOM     25  O   UNL     1     -65.482 -45.964 -47.557  0.00  0.00    +0.000 OA
ATOM     26  H   UNL     1     -66.155 -45.872 -46.859  0.00  0.00    +0.000 HD
ENDBRANCH   9  25
BRANCH   8  27
ATOM     27  O   UNL     1     -63.602 -49.414 -52.933  0.00  0.00    +0.000 OA
ATOM     28  H   UNL     1     -62.907 -49.148 -53.560  0.00  0.00    +0.000 HD
ENDBRANCH   8  27
BRANCH  18  29
ATOM     29  O   UNL     1     -65.991 -45.815 -55.078  0.00  0.00    +0.000 OA
BRANCH  29  31
ATOM     30  O   UNL     1     -67.366 -45.174 -56.751  0.00  0.00    +0.000 OA
ATOM     31  C   UNL     1     -66.228 -45.357 -56.333  0.00  0.00    +0.000 C 
BRANCH  31  32
ATOM     32  C   UNL     1     -64.991 -45.245 -57.231  0.00  0.00    +0.000 C 
BRANCH  32  33
ATOM     33  O   UNL     1     -64.851 -44.006 -57.935  0.00  0.00    +0.000 OA
ATOM     34  H   UNL     1     -65.386 -44.095 -58.746  0.00  0.00    +0.000 HD
ENDBRANCH  32  33
BRANCH  32  35
ATOM     35  C   UNL     1     -64.977 -46.456 -58.201  0.00  0.00    +0.000 C 
BRANCH  35  36
ATOM     36  C   UNL     1     -63.675 -46.565 -58.986  0.00  0.00    +0.000 A 
ATOM     37  C   UNL     1     -63.705 -46.989 -60.325  0.00  0.00    +0.000 A 
ATOM     38  C   UNL     1     -62.436 -46.217 -58.422  0.00  0.00    +0.000 A 
ATOM     39  C   UNL     1     -62.528 -47.087 -61.070  0.00  0.00    +0.000 A 
ATOM     40  C   UNL     1     -61.261 -46.317 -59.170  0.00  0.00    +0.000 A 
ATOM     41  C   UNL     1     -61.307 -46.754 -60.492  0.00  0.00    +0.000 A 
ENDBRANCH  35  36
BRANCH  35  43
ATOM     42  O   UNL     1     -67.217 -48.245 -58.406  0.00  0.00    +0.000 OA
ATOM     43  N   UNL     1     -66.088 -46.398 -59.141  0.00  0.00    +0.000 N 
ATOM     44  C   UNL     1     -67.045 -47.357 -59.224  0.00  0.00    +0.000 C 
ATOM     45  H   UNL     1     -65.986 -45.798 -59.949  0.00  0.00    +0.000 HD
BRANCH  44  46
ATOM     46  O   UNL     1     -67.778 -47.140 -60.337  0.00  0.00    +0.000 OA
BRANCH  46  47
ATOM     47  C   UNL     1     -68.950 -46.286 -60.298  0.00  0.00    +0.000 C 
ATOM     48  C   UNL     1     -68.584 -44.823 -60.570  0.00  0.00    +0.000 C 
ATOM     49  C   UNL     1     -69.837 -46.791 -61.446  0.00  0.00    +0.000 C 
ATOM     50  C   UNL     1     -69.713 -46.451 -58.979  0.00  0.00    +0.000 C 
ENDBRANCH  46  47
ENDBRANCH  44  46
ENDBRANCH  35  43
ENDBRANCH  32  35
ENDBRANCH  31  32
ENDBRANCH  29  31
ENDBRANCH  18  29
BRANCH   7  51
ATOM     51  O   UNL     1     -64.710 -46.151 -52.457  0.00  0.00    +0.000 OA
BRANCH  51  53
ATOM     52  O   UNL     1     -62.759 -46.271 -52.913  0.00  0.00    +0.000 OA
ATOM     53  C   UNL     1     -63.710 -45.541 -53.174  0.00  0.00    +0.000 C 
BRANCH  53  54
ATOM     54  C   UNL     1     -63.881 -43.827 -54.014  0.00  0.00    +0.000 A 
ATOM     55  C   UNL     1     -62.937 -43.257 -54.975  0.00  0.00    +0.000 A 
ATOM     56  C   UNL     1     -64.990 -42.930 -53.939  0.00  0.00    +0.000 A 
ATOM     57  C   UNL     1     -63.075 -42.046 -55.701  0.00  0.00    +0.000 A 
ATOM     58  C   UNL     1     -65.147 -41.710 -54.659  0.00  0.00    +0.000 A 
ATOM     59  C   UNL     1     -64.192 -41.266 -55.540  0.00  0.00    +0.000 A 
ENDBRANCH  53  54
ENDBRANCH  51  53
ENDBRANCH   7  51
BRANCH   4  60
ATOM     60  O   UNL     1     -63.360 -43.668 -50.915  0.00  0.00    +0.000 OA
BRANCH  60  62
ATOM     61  O   UNL     1     -61.498 -42.805 -51.806  0.00  0.00    +0.000 OA
ATOM     62  C   UNL     1     -62.511 -42.636 -51.132  0.00  0.00    +0.000 C 
ATOM     63  C   UNL     1     -62.764 -41.331 -50.445  0.00  0.00    +0.000 C 
ENDBRANCH  60  62
ENDBRANCH   4  60
TORSDOF 17
ENDMDL
MODEL 2
REMARK VINA RESULT:      -5.8     29.429     35.146
REMARK  Name = 
REMARK  25 active torsions:
REMARK  status: ('A' for Active; 'I' for Inactive)
REMARK    1  A    between atoms: O_2  and  C_17
REMARK    2  A    between atoms: O_2  and  C_36
REMARK    3  A    between atoms: O_3  and  C_20
REMARK    4  A    between atoms: O_3  and  C_37
REMARK    5  A    between atoms: O_4  and  C_21
REMARK    6  A    between atoms: O_5  and  C_22
REMARK    7  A    between atoms: O_7  and  C_30
REMARK    8  A    between atoms: O_8  and  C_31
REMARK    9  A    between atoms: O_8  and  C_39
REMARK   10  A    between atoms: O_12  and  C_41
REMARK   11  A    between atoms: O_13  and  C_51
REMARK   12  A    between atoms: O_13  and  C_55
REMARK   13  A    between atoms: N_15  and  C_44
REMARK   14  A    between atoms: C_18  and  C_29
REMARK   15  A    between atoms: C_24  and  C_33
REMARK   16  A    between atoms: C_24  and  C_34
REMARK   17  A    between atoms: C_32  and  C_35
REMARK   18  A    between atoms: C_36  and  C_38
REMARK   19  A    between atoms: C_37  and  C_40
REMARK   20  A    between atoms: C_39  and  C_41
REMARK   21  A    between atoms: C_41  and  C_44
REMARK   22  A    between atoms: C_44  and  C_48
REMARK   23  A    between atoms: C_55  and  C_56
REMARK   24  A    between atoms: C_55  and  C_57
REMARK   25  A    between atoms: C_55  and  C_58
REMARK                            x       y       z     vdW  Elec       q    Type
REMARK                         _______ _______ _______ _____ _____    ______ ____
ROOT
ATOM      1  O   UNL     1     -60.542 -48.298 -26.068  0.00  0.00    +0.000 OA
ATOM      2  O   UNL     1     -55.450 -51.824 -23.462  0.00  0.00    +0.000 OA
ATOM      3  C   UNL     1     -59.563 -51.410 -24.967  0.00  0.00    +0.000 C 
ATOM      4  C   UNL     1     -60.412 -50.105 -24.925  0.00  0.00    +0.000 C 
ATOM      5  C   UNL     1     -57.981 -51.074 -23.974  0.00  0.00    +0.000 C 
ATOM      6  C   UNL     1     -59.440 -49.205 -25.792  0.00  0.00    +0.000 C 
ATOM      7  C   UNL     1     -60.601 -52.933 -24.693  0.00  0.00    +0.000 C 
ATOM      8  C   UNL     1     -60.458 -54.815 -24.536  0.00  0.00    +0.000 C 
ATOM      9  C   UNL     1     -57.289 -49.883 -24.759  0.00  0.00    +0.000 C 
ATOM     10  C   UNL     1     -58.213 -48.670 -25.085  0.00  0.00    +0.000 C 
ATOM     11  C   UNL     1     -58.996 -55.801 -24.327  0.00  0.00    +0.000 C 
ATOM     12  C   UNL     1     -61.411 -49.497 -25.989  0.00  0.00    +0.000 C 
ATOM     13  C   UNL     1     -56.610 -52.285 -23.533  0.00  0.00    +0.000 C 
ATOM     14  C   UNL     1     -61.242 -55.188 -23.194  0.00  0.00    +0.000 C 
ATOM     15  C   UNL     1     -58.119 -55.299 -23.085  0.00  0.00    +0.000 C 
ATOM     16  C   UNL     1     -58.285 -50.442 -22.551  0.00  0.00    +0.000 C 
ATOM     17  C   UNL     1     -56.743 -54.164 -23.164  0.00  0.00    +0.000 C 
ATOM     18  C   UNL     1     -60.390 -55.372 -21.857  0.00  0.00    +0.000 C 
ATOM     19  C   UNL     1     -58.820 -55.383 -21.905  0.00  0.00    +0.000 C 
ATOM     20  C   UNL     1     -59.481 -57.297 -23.980  0.00  0.00    +0.000 C 
ATOM     21  C   UNL     1     -58.167 -56.216 -25.584  0.00  0.00    +0.000 C 
ATOM     22  C   UNL     1     -58.160 -55.216 -20.558  0.00  0.00    +0.000 C 
ENDROOT
BRANCH  17  23
ATOM     23  O   UNL     1     -55.683 -54.917 -23.754  0.00  0.00    +0.000 OA
ATOM     24  H   UNL     1     -55.980 -55.098 -24.666  0.00  0.00    +0.000 HD
ENDBRANCH  17  23
BRANCH   9  25
ATOM     25  O   UNL     1     -56.806 -50.381 -26.008  0.00  0.00    +0.000 OA
ATOM     26  H   UNL     1     -57.422 -50.071 -26.696  0.00  0.00    +0.000 HD
ENDBRANCH   9  25
BRANCH   8  27
ATOM     27  O   UNL     1     -61.241 -55.332 -25.630  0.00  0.00    +0.000 OA
ATOM     28  H   UNL     1     -61.416 -54.614 -26.264  0.00  0.00    +0.000 HD
ENDBRANCH   8  27
BRANCH  18  29
ATOM     29  O   UNL     1     -60.774 -54.307 -20.940  0.00  0.00    +0.000 OA
BRANCH  29  31
ATOM     30  O   UNL     1     -62.924 -54.920 -20.621  0.00  0.00    +0.000 OA
ATOM     31  C   UNL     1     -61.865 -54.508 -20.160  0.00  0.00    +0.000 C 
BRANCH  31  32
ATOM     32  C   UNL     1     -61.727 -54.031 -18.710  0.00  0.00    +0.000 C 
BRANCH  32  33
ATOM     33  O   UNL     1     -60.481 -54.342 -18.076  0.00  0.00    +0.000 OA
ATOM     34  H   UNL     1     -59.877 -54.621 -18.790  0.00  0.00    +0.000 HD
ENDBRANCH  32  33
BRANCH  32  35
ATOM     35  C   UNL     1     -62.931 -54.576 -17.896  0.00  0.00    +0.000 C 
BRANCH  35  36
ATOM     36  C   UNL     1     -64.019 -53.529 -17.685  0.00  0.00    +0.000 A 
ATOM     37  C   UNL     1     -65.156 -53.535 -18.510  0.00  0.00    +0.000 A 
ATOM     38  C   UNL     1     -63.941 -52.572 -16.660  0.00  0.00    +0.000 A 
ATOM     39  C   UNL     1     -66.173 -52.594 -18.331  0.00  0.00    +0.000 A 
ATOM     40  C   UNL     1     -64.958 -51.632 -16.484  0.00  0.00    +0.000 A 
ATOM     41  C   UNL     1     -66.072 -51.642 -17.321  0.00  0.00    +0.000 A 
ENDBRANCH  35  36
BRANCH  35  43
ATOM     42  O   UNL     1     -61.949 -57.200 -17.256  0.00  0.00    +0.000 OA
ATOM     43  N   UNL     1     -62.511 -55.084 -16.598  0.00  0.00    +0.000 N 
ATOM     44  C   UNL     1     -62.161 -56.377 -16.381  0.00  0.00    +0.000 C 
ATOM     45  H   UNL     1     -62.770 -54.548 -15.780  0.00  0.00    +0.000 HD
BRANCH  44  46
ATOM     46  O   UNL     1     -62.064 -56.581 -15.050  0.00  0.00    +0.000 OA
BRANCH  46  47
ATOM     47  C   UNL     1     -63.237 -56.913 -14.263  0.00  0.00    +0.000 C 
ATOM     48  C   UNL     1     -64.250 -57.720 -15.083  0.00  0.00    +0.000 C 
ATOM     49  C   UNL     1     -62.706 -57.800 -13.128  0.00  0.00    +0.000 C 
ATOM     50  C   UNL     1     -63.867 -55.657 -13.650  0.00  0.00    +0.000 C 
ENDBRANCH  46  47
ENDBRANCH  44  46
ENDBRANCH  35  43
ENDBRANCH  32  35
ENDBRANCH  31  32
ENDBRANCH  29  31
ENDBRANCH  18  29
BRANCH   7  51
ATOM     51  O   UNL     1     -60.269 -52.824 -23.424  0.00  0.00    +0.000 OA
BRANCH  51  53
ATOM     52  O   UNL     1     -62.101 -52.520 -24.185  0.00  0.00    +0.000 OA
ATOM     53  C   UNL     1     -61.532 -52.387 -23.107  0.00  0.00    +0.000 C 
BRANCH  53  54
ATOM     54  C   UNL     1     -61.986 -51.523 -21.458  0.00  0.00    +0.000 A 
ATOM     55  C   UNL     1     -61.029 -50.984 -20.492  0.00  0.00    +0.000 A 
ATOM     56  C   UNL     1     -63.289 -51.161 -20.997  0.00  0.00    +0.000 A 
ATOM     57  C   UNL     1     -61.318 -50.245 -19.316  0.00  0.00    +0.000 A 
ATOM     58  C   UNL     1     -63.600 -50.419 -19.820  0.00  0.00    +0.000 A 
ATOM     59  C   UNL     1     -62.616 -49.960 -18.978  0.00  0.00    +0.000 A 
ENDBRANCH  53  54
ENDBRANCH  51  53
ENDBRANCH   7  51
BRANCH   4  60
ATOM     60  O   UNL     1     -60.622 -49.627 -23.576  0.00  0.00    +0.000 OA
BRANCH  60  62
ATOM     61  O   UNL     1     -62.720 -48.853 -23.514  0.00  0.00    +0.000 OA
ATOM     62  C   UNL     1     -61.535 -48.687 -23.235  0.00  0.00    +0.000 C 
ATOM     63  C   UNL     1     -61.063 -47.404 -22.627  0.00  0.00    +0.000 C 
ENDBRANCH  60  62
ENDBRANCH   4  60
TORSDOF 17
ENDMDL
MODEL 3
REMARK VINA RESULT:      -5.5     12.805     16.150
REMARK  Name = 
REMARK  25 active torsions:
REMARK  status: ('A' for Active; 'I' for Inactive)
REMARK    1  A    between atoms: O_2  and  C_17
REMARK    2  A    between atoms: O_2  and  C_36
REMARK    3  A    between atoms: O_3  and  C_20
REMARK    4  A    between atoms: O_3  and  C_37
REMARK    5  A    between atoms: O_4  and  C_21
REMARK    6  A    between atoms: O_5  and  C_22
REMARK    7  A    between atoms: O_7  and  C_30
REMARK    8  A    between atoms: O_8  and  C_31
REMARK    9  A    between atoms: O_8  and  C_39
REMARK   10  A    between atoms: O_12  and  C_41
REMARK   11  A    between atoms: O_13  and  C_51
REMARK   12  A    between atoms: O_13  and  C_55
REMARK   13  A    between atoms: N_15  and  C_44
REMARK   14  A    between atoms: C_18  and  C_29
REMARK   15  A    between atoms: C_24  and  C_33
REMARK   16  A    between atoms: C_24  and  C_34
REMARK   17  A    between atoms: C_32  and  C_35
REMARK   18  A    between atoms: C_36  and  C_38
REMARK   19  A    between atoms: C_37  and  C_40
REMARK   20  A    between atoms: C_39  and  C_41
REMARK   21  A    between atoms: C_41  and  C_44
REMARK   22  A    between atoms: C_44  and  C_48
REMARK   23  A    between atoms: C_55  and  C_56
REMARK   24  A    between atoms: C_55  and  C_57
REMARK   25  A    between atoms: C_55  and  C_58
REMARK                            x       y       z     vdW  Elec       q    Type
REMARK                         _______ _______ _______ _____ _____    ______ ____
ROOT
ATOM      1  O   UNL     1     -58.560 -59.757 -51.742  0.00  0.00    +0.000 OA
ATOM      2  O   UNL     1     -61.505 -55.700 -56.217  0.00  0.00    +0.000 OA
ATOM      3  C   UNL     1     -59.393 -59.382 -55.062  0.00  0.00    +0.000 C 
ATOM      4  C   UNL     1     -58.405 -59.518 -53.865  0.00  0.00    +0.000 C 
ATOM      5  C   UNL     1     -59.808 -57.538 -55.230  0.00  0.00    +0.000 C 
ATOM      6  C   UNL     1     -59.420 -59.111 -52.720  0.00  0.00    +0.000 C 
ATOM      7  C   UNL     1     -58.875 -60.420 -56.521  0.00  0.00    +0.000 C 
ATOM      8  C   UNL     1     -59.381 -60.831 -58.300  0.00  0.00    +0.000 C 
ATOM      9  C   UNL     1     -60.492 -57.178 -53.846  0.00  0.00    +0.000 C 
ATOM     10  C   UNL     1     -59.710 -57.632 -52.575  0.00  0.00    +0.000 C 
ATOM     11  C   UNL     1     -60.564 -60.005 -59.334  0.00  0.00    +0.000 C 
ATOM     12  C   UNL     1     -58.204 -60.697 -52.831  0.00  0.00    +0.000 C 
ATOM     13  C   UNL     1     -60.838 -56.699 -56.564  0.00  0.00    +0.000 C 
ATOM     14  C   UNL     1     -58.057 -60.631 -59.172  0.00  0.00    +0.000 C 
ATOM     15  C   UNL     1     -60.268 -58.435 -59.431  0.00  0.00    +0.000 C 
ATOM     16  C   UNL     1     -58.510 -56.626 -55.242  0.00  0.00    +0.000 C 
ATOM     17  C   UNL     1     -61.007 -57.165 -58.417  0.00  0.00    +0.000 C 
ATOM     18  C   UNL     1     -57.865 -59.239 -59.930  0.00  0.00    +0.000 C 
ATOM     19  C   UNL     1     -59.030 -58.187 -59.977  0.00  0.00    +0.000 C 
ATOM     20  C   UNL     1     -60.392 -60.604 -60.819  0.00  0.00    +0.000 C 
ATOM     21  C   UNL     1     -62.076 -60.377 -59.213  0.00  0.00    +0.000 C 
ATOM     22  C   UNL     1     -58.600 -56.808 -60.413  0.00  0.00    +0.000 C 
ENDROOT
BRANCH  17  23
ATOM     23  O   UNL     1     -62.350 -57.056 -58.892  0.00  0.00    +0.000 OA
ATOM     24  H   UNL     1     -62.415 -56.153 -59.257  0.00  0.00    +0.000 HD
ENDBRANCH  17  23
BRANCH   9  25
ATOM     25  O   UNL     1     -61.771 -57.809 -53.791  0.00  0.00    +0.000 OA
ATOM     26  H   UNL     1     -61.628 -58.716 -53.464  0.00  0.00    +0.000 HD
ENDBRANCH   9  25
BRANCH   8  27
ATOM     27  O   UNL     1     -59.654 -62.246 -58.281  0.00  0.00    +0.000 OA
ATOM     28  H   UNL     1     -60.234 -62.449 -57.526  0.00  0.00    +0.000 HD
ENDBRANCH   8  27
BRANCH  18  29
ATOM     29  O   UNL     1     -56.717 -58.568 -59.334  0.00  0.00    +0.000 OA
BRANCH  29  31
ATOM     30  O   UNL     1     -54.636 -57.786 -59.729  0.00  0.00    +0.000 OA
ATOM     31  C   UNL     1     -55.578 -58.494 -60.067  0.00  0.00    +0.000 C 
BRANCH  31  32
ATOM     32  C   UNL     1     -55.621 -59.222 -61.415  0.00  0.00    +0.000 C 
BRANCH  32  33
ATOM     33  O   UNL     1     -54.502 -60.071 -61.693  0.00  0.00    +0.000 OA
ATOM     34  H   UNL     1     -53.712 -59.500 -61.649  0.00  0.00    +0.000 HD
ENDBRANCH  32  33
BRANCH  32  35
ATOM     35  C   UNL     1     -55.828 -58.169 -62.535  0.00  0.00    +0.000 C 
BRANCH  35  36
ATOM     36  C   UNL     1     -56.465 -58.761 -63.788  0.00  0.00    +0.000 A 
ATOM     37  C   UNL     1     -57.716 -59.392 -63.698  0.00  0.00    +0.000 A 
ATOM     38  C   UNL     1     -55.855 -58.662 -65.050  0.00  0.00    +0.000 A 
ATOM     39  C   UNL     1     -58.327 -59.933 -64.831  0.00  0.00    +0.000 A 
ATOM     40  C   UNL     1     -56.467 -59.205 -66.181  0.00  0.00    +0.000 A 
ATOM     41  C   UNL     1     -57.701 -59.842 -66.071  0.00  0.00    +0.000 A 
ENDBRANCH  35  36
BRANCH  35  43
ATOM     42  O   UNL     1     -55.097 -55.405 -62.244  0.00  0.00    +0.000 OA
ATOM     43  N   UNL     1     -54.573 -57.530 -62.905  0.00  0.00    +0.000 N 
ATOM     44  C   UNL     1     -54.366 -56.191 -62.822  0.00  0.00    +0.000 C 
ATOM     45  H   UNL     1     -53.950 -58.042 -63.516  0.00  0.00    +0.000 HD
BRANCH  44  46
ATOM     46  O   UNL     1     -53.213 -55.893 -63.459  0.00  0.00    +0.000 OA
BRANCH  46  47
ATOM     47  C   UNL     1     -53.223 -55.128 -64.692  0.00  0.00    +0.000 C 
ATOM     48  C   UNL     1     -54.017 -53.827 -64.535  0.00  0.00    +0.000 C 
ATOM     49  C   UNL     1     -51.749 -54.776 -64.944  0.00  0.00    +0.000 C 
ATOM     50  C   UNL     1     -53.733 -55.972 -65.865  0.00  0.00    +0.000 C 
ENDBRANCH  46  47
ENDBRANCH  44  46
ENDBRANCH  35  43
ENDBRANCH  32  35
ENDBRANCH  31  32
ENDBRANCH  29  31
ENDBRANCH  18  29
BRANCH   7  51
ATOM     51  O   UNL     1     -58.274 -59.336 -56.966  0.00  0.00    +0.000 OA
BRANCH  51  53
ATOM     52  O   UNL     1     -57.354 -61.029 -56.401  0.00  0.00    +0.000 OA
ATOM     53  C   UNL     1     -57.043 -59.878 -56.689  0.00  0.00    +0.000 C 
BRANCH  53  54
ATOM     54  C   UNL     1     -55.432 -58.854 -56.525  0.00  0.00    +0.000 A 
ATOM     55  C   UNL     1     -54.074 -59.393 -56.607  0.00  0.00    +0.000 A 
ATOM     56  C   UNL     1     -55.310 -57.433 -56.437  0.00  0.00    +0.000 A 
ATOM     57  C   UNL     1     -52.858 -58.663 -56.599  0.00  0.00    +0.000 A 
ATOM     58  C   UNL     1     -54.098 -56.682 -56.428  0.00  0.00    +0.000 A 
ATOM     59  C   UNL     1     -52.871 -57.295 -56.509  0.00  0.00    +0.000 A 
ENDBRANCH  53  54
ENDBRANCH  51  53
ENDBRANCH   7  51
BRANCH   4  60
ATOM     60  O   UNL     1     -57.263 -58.638 -53.989  0.00  0.00    +0.000 OA
BRANCH  60  62
ATOM     61  O   UNL     1     -55.453 -59.686 -53.195  0.00  0.00    +0.000 OA
ATOM     62  C   UNL     1     -56.174 -58.690 -53.189  0.00  0.00    +0.000 C 
ATOM     63  C   UNL     1     -55.931 -57.576 -52.220  0.00  0.00    +0.000 C 
ENDBRANCH  60  62
ENDBRANCH   4  60
TORSDOF 17
ENDMDL
MODEL 4
REMARK VINA RESULT:      -5.4     30.071     36.209
REMARK  Name = 
REMARK  25 active torsions:
REMARK  status: ('A' for Active; 'I' for Inactive)
REMARK    1  A    between atoms: O_2  and  C_17
REMARK    2  A    between atoms: O_2  and  C_36
REMARK    3  A    between atoms: O_3  and  C_20
REMARK    4  A    between atoms: O_3  and  C_37
REMARK    5  A    between atoms: O_4  and  C_21
REMARK    6  A    between atoms: O_5  and  C_22
REMARK    7  A    between atoms: O_7  and  C_30
REMARK    8  A    between atoms: O_8  and  C_31
REMARK    9  A    between atoms: O_8  and  C_39
REMARK   10  A    between atoms: O_12  and  C_41
REMARK   11  A    between atoms: O_13  and  C_51
REMARK   12  A    between atoms: O_13  and  C_55
REMARK   13  A    between atoms: N_15  and  C_44
REMARK   14  A    between atoms: C_18  and  C_29
REMARK   15  A    between atoms: C_24  and  C_33
REMARK   16  A    between atoms: C_24  and  C_34
REMARK   17  A    between atoms: C_32  and  C_35
REMARK   18  A    between atoms: C_36  and  C_38
REMARK   19  A    between atoms: C_37  and  C_40
REMARK   20  A    between atoms: C_39  and  C_41
REMARK   21  A    between atoms: C_41  and  C_44
REMARK   22  A    between atoms: C_44  and  C_48
REMARK   23  A    between atoms: C_55  and  C_56
REMARK   24  A    between atoms: C_55  and  C_57
REMARK   25  A    between atoms: C_55  and  C_58
REMARK                            x       y       z     vdW  Elec       q    Type
REMARK                         _______ _______ _______ _____ _____    ______ ____
ROOT
ATOM      1  O   UNL     1     -43.164 -59.401 -83.406  0.00  0.00    +0.000 OA
ATOM      2  O   UNL     1     -41.538 -65.559 -81.263  0.00  0.00    +0.000 OA
ATOM      3  C   UNL     1     -44.426 -62.445 -82.408  0.00  0.00    +0.000 C 
ATOM      4  C   UNL     1     -44.194 -60.910 -82.286  0.00  0.00    +0.000 C 
ATOM      5  C   UNL     1     -42.962 -63.297 -81.553  0.00  0.00    +0.000 C 
ATOM      6  C   UNL     1     -42.925 -60.824 -83.230  0.00  0.00    +0.000 C 
ATOM      7  C   UNL     1     -46.194 -62.918 -82.052  0.00  0.00    +0.000 C 
ATOM      8  C   UNL     1     -47.324 -64.432 -81.917  0.00  0.00    +0.000 C 
ATOM      9  C   UNL     1     -41.705 -62.814 -82.389  0.00  0.00    +0.000 C 
ATOM     10  C   UNL     1     -41.611 -61.276 -82.629  0.00  0.00    +0.000 C 
ATOM     11  C   UNL     1     -46.873 -66.147 -81.838  0.00  0.00    +0.000 C 
ATOM     12  C   UNL     1     -44.602 -59.731 -83.258  0.00  0.00    +0.000 C 
ATOM     13  C   UNL     1     -42.714 -65.136 -81.236  0.00  0.00    +0.000 C 
ATOM     14  C   UNL     1     -48.074 -64.275 -80.514  0.00  0.00    +0.000 C 
ATOM     15  C   UNL     1     -45.810 -66.424 -80.674  0.00  0.00    +0.000 C 
ATOM     16  C   UNL     1     -42.683 -62.709 -80.106  0.00  0.00    +0.000 C 
ATOM     17  C   UNL     1     -44.035 -66.477 -80.866  0.00  0.00    +0.000 C 
ATOM     18  C   UNL     1     -47.478 -65.056 -79.255  0.00  0.00    +0.000 C 
ATOM     19  C   UNL     1     -46.316 -66.097 -79.438  0.00  0.00    +0.000 C 
ATOM     20  C   UNL     1     -48.205 -66.969 -81.458  0.00  0.00    +0.000 C 
ATOM     21  C   UNL     1     -46.606 -66.929 -83.164  0.00  0.00    +0.000 C 
ATOM     22  C   UNL     1     -45.630 -66.488 -78.153  0.00  0.00    +0.000 C 
ENDROOT
BRANCH  17  23
ATOM     23  O   UNL     1     -43.779 -67.705 -81.548  0.00  0.00    +0.000 OA
ATOM     24  H   UNL     1     -43.012 -68.094 -81.087  0.00  0.00    +0.000 HD
ENDBRANCH  17  23
BRANCH   9  25
ATOM     25  O   UNL     1     -41.750 -63.430 -83.677  0.00  0.00    +0.000 OA
ATOM     26  H   UNL     1     -41.329 -62.814 -84.303  0.00  0.00    +0.000 HD
ENDBRANCH   9  25
BRANCH   8  27
ATOM     27  O   UNL     1     -48.318 -64.236 -82.941  0.00  0.00    +0.000 OA
ATOM     28  H   UNL     1     -49.043 -64.873 -82.809  0.00  0.00    +0.000 HD
ENDBRANCH   8  27
BRANCH  18  29
ATOM     29  O   UNL     1     -47.003 -64.059 -78.305  0.00  0.00    +0.000 OA
BRANCH  29  31
ATOM     30  O   UNL     1     -48.386 -64.665 -76.625  0.00  0.00    +0.000 OA
ATOM     31  C   UNL     1     -47.788 -63.784 -77.233  0.00  0.00    +0.000 C 
BRANCH  31  32
ATOM     32  C   UNL     1     -48.000 -62.293 -76.946  0.00  0.00    +0.000 C 
BRANCH  32  33
ATOM     33  O   UNL     1     -47.494 -61.830 -75.689  0.00  0.00    +0.000 OA
ATOM     34  H   UNL     1     -46.636 -61.407 -75.883  0.00  0.00    +0.000 HD
ENDBRANCH  32  33
BRANCH  32  35
ATOM     35  C   UNL     1     -49.510 -61.973 -77.105  0.00  0.00    +0.000 C 
BRANCH  35  36
ATOM     36  C   UNL     1     -49.757 -60.625 -77.775  0.00  0.00    +0.000 A 
ATOM     37  C   UNL     1     -51.066 -60.256 -78.126  0.00  0.00    +0.000 A 
ATOM     38  C   UNL     1     -48.715 -59.716 -78.021  0.00  0.00    +0.000 A 
ATOM     39  C   UNL     1     -51.322 -59.023 -78.730  0.00  0.00    +0.000 A 
ATOM     40  C   UNL     1     -48.974 -58.484 -78.626  0.00  0.00    +0.000 A 
ATOM     41  C   UNL     1     -50.276 -58.139 -78.983  0.00  0.00    +0.000 A 
ENDBRANCH  35  36
BRANCH  35  43
ATOM     42  O   UNL     1     -51.791 -63.544 -76.341  0.00  0.00    +0.000 OA
ATOM     43  N   UNL     1     -50.197 -61.991 -75.821  0.00  0.00    +0.000 N 
ATOM     44  C   UNL     1     -51.335 -62.695 -75.595  0.00  0.00    +0.000 C 
ATOM     45  H   UNL     1     -50.002 -61.237 -75.175  0.00  0.00    +0.000 HD
BRANCH  44  46
ATOM     46  O   UNL     1     -51.848 -62.315 -74.405  0.00  0.00    +0.000 OA
BRANCH  46  47
ATOM     47  C   UNL     1     -52.181 -63.300 -73.393  0.00  0.00    +0.000 C 
ATOM     48  C   UNL     1     -51.150 -64.433 -73.354  0.00  0.00    +0.000 C 
ATOM     49  C   UNL     1     -52.116 -62.531 -72.065  0.00  0.00    +0.000 C 
ATOM     50  C   UNL     1     -53.607 -63.830 -73.583  0.00  0.00    +0.000 C 
ENDBRANCH  46  47
ENDBRANCH  44  46
ENDBRANCH  35  43
ENDBRANCH  32  35
ENDBRANCH  31  32
ENDBRANCH  29  31
ENDBRANCH  18  29
BRANCH   7  51
ATOM     51  O   UNL     1     -45.795 -63.132 -80.815  0.00  0.00    +0.000 OA
BRANCH  51  53
ATOM     52  O   UNL     1     -45.791 -61.794 -79.319  0.00  0.00    +0.000 OA
ATOM     53  C   UNL     1     -46.331 -61.934 -80.411  0.00  0.00    +0.000 C 
BRANCH  53  54
ATOM     54  C   UNL     1     -47.776 -61.047 -81.305  0.00  0.00    +0.000 A 
ATOM     55  C   UNL     1     -49.194 -61.372 -81.151  0.00  0.00    +0.000 A 
ATOM     56  C   UNL     1     -47.704 -59.881 -82.126  0.00  0.00    +0.000 A 
ATOM     57  C   UNL     1     -50.300 -60.679 -81.706  0.00  0.00    +0.000 A 
ATOM     58  C   UNL     1     -48.803 -59.170 -82.693  0.00  0.00    +0.000 A 
ATOM     59  C   UNL     1     -50.101 -59.567 -82.483  0.00  0.00    +0.000 A 
ENDBRANCH  53  54
ENDBRANCH  51  53
ENDBRANCH   7  51
BRANCH   4  60
ATOM     60  O   UNL     1     -43.950 -60.495 -80.922  0.00  0.00    +0.000 OA
BRANCH  60  62
ATOM     61  O   UNL     1     -42.747 -58.686 -80.387  0.00  0.00    +0.000 OA
ATOM     62  C   UNL     1     -43.853 -59.204 -80.526  0.00  0.00    +0.000 C 
ATOM     63  C   UNL     1     -45.098 -58.464 -80.152  0.00  0.00    +0.000 C 
ENDBRANCH  60  62
ENDBRANCH   4  60
TORSDOF 17
ENDMDL
MODEL 5
REMARK VINA RESULT:      -5.4     27.411     32.189
REMARK  Name = 
REMARK  25 active torsions:
REMARK  status: ('A' for Active; 'I' for Inactive)
REMARK    1  A    between atoms: O_2  and  C_17
REMARK    2  A    between atoms: O_2  and  C_36
REMARK    3  A    between atoms: O_3  and  C_20
REMARK    4  A    between atoms: O_3  and  C_37
REMARK    5  A    between atoms: O_4  and  C_21
REMARK    6  A    between atoms: O_5  and  C_22
REMARK    7  A    between atoms: O_7  and  C_30
REMARK    8  A    between atoms: O_8  and  C_31
REMARK    9  A    between atoms: O_8  and  C_39
REMARK   10  A    between atoms: O_12  and  C_41
REMARK   11  A    between atoms: O_13  and  C_51
REMARK   12  A    between atoms: O_13  and  C_55
REMARK   13  A    between atoms: N_15  and  C_44
REMARK   14  A    between atoms: C_18  and  C_29
REMARK   15  A    between atoms: C_24  and  C_33
REMARK   16  A    between atoms: C_24  and  C_34
REMARK   17  A    between atoms: C_32  and  C_35
REMARK   18  A    between atoms: C_36  and  C_38
REMARK   19  A    between atoms: C_37  and  C_40
REMARK   20  A    between atoms: C_39  and  C_41
REMARK   21  A    between atoms: C_41  and  C_44
REMARK   22  A    between atoms: C_44  and  C_48
REMARK   23  A    between atoms: C_55  and  C_56
REMARK   24  A    between atoms: C_55  and  C_57
REMARK   25  A    between atoms: C_55  and  C_58
REMARK                            x       y       z     vdW  Elec       q    Type
REMARK                         _______ _______ _______ _____ _____    ______ ____
ROOT
ATOM      1  O   UNL     1     -76.759 -55.238 -19.660  0.00  0.00    +0.000 OA
ATOM      2  O   UNL     1     -78.623 -60.363 -23.586  0.00  0.00    +0.000 OA
ATOM      3  C   UNL     1     -75.659 -57.542 -21.971  0.00  0.00    +0.000 C 
ATOM      4  C   UNL     1     -75.969 -56.106 -21.453  0.00  0.00    +0.000 C 
ATOM      5  C   UNL     1     -77.253 -58.201 -22.764  0.00  0.00    +0.000 C 
ATOM      6  C   UNL     1     -76.982 -56.520 -20.308  0.00  0.00    +0.000 C 
ATOM      7  C   UNL     1     -74.010 -57.636 -22.835  0.00  0.00    +0.000 C 
ATOM      8  C   UNL     1     -72.890 -58.851 -23.761  0.00  0.00    +0.000 C 
ATOM      9  C   UNL     1     -78.293 -58.208 -21.568  0.00  0.00    +0.000 C 
ATOM     10  C   UNL     1     -78.383 -56.882 -20.751  0.00  0.00    +0.000 C 
ATOM     11  C   UNL     1     -73.286 -60.465 -24.387  0.00  0.00    +0.000 C 
ATOM     12  C   UNL     1     -75.386 -55.315 -20.215  0.00  0.00    +0.000 C 
ATOM     13  C   UNL     1     -77.502 -59.818 -23.693  0.00  0.00    +0.000 C 
ATOM     14  C   UNL     1     -72.499 -58.111 -25.122  0.00  0.00    +0.000 C 
ATOM     15  C   UNL     1     -74.583 -60.432 -25.324  0.00  0.00    +0.000 C 
ATOM     16  C   UNL     1     -77.887 -57.170 -23.790  0.00  0.00    +0.000 C 
ATOM     17  C   UNL     1     -76.259 -60.766 -24.805  0.00  0.00    +0.000 C 
ATOM     18  C   UNL     1     -73.348 -58.453 -26.431  0.00  0.00    +0.000 C 
ATOM     19  C   UNL     1     -74.395 -59.623 -26.420  0.00  0.00    +0.000 C 
ATOM     20  C   UNL     1     -72.052 -60.926 -25.314  0.00  0.00    +0.000 C 
ATOM     21  C   UNL     1     -73.203 -61.697 -23.430  0.00  0.00    +0.000 C 
ATOM     22  C   UNL     1     -75.351 -59.607 -27.587  0.00  0.00    +0.000 C 
ENDROOT
BRANCH  17  23
ATOM     23  O   UNL     1     -76.302 -62.178 -24.601  0.00  0.00    +0.000 OA
ATOM     24  H   UNL     1     -76.812 -62.298 -23.777  0.00  0.00    +0.000 HD
ENDBRANCH  17  23
BRANCH   9  25
ATOM     25  O   UNL     1     -77.923 -59.235 -20.647  0.00  0.00    +0.000 OA
ATOM     26  H   UNL     1     -77.000 -59.476 -20.845  0.00  0.00    +0.000 HD
ENDBRANCH   9  25
BRANCH   8  27
ATOM     27  O   UNL     1     -71.690 -58.917 -22.967  0.00  0.00    +0.000 OA
ATOM     28  H   UNL     1     -71.056 -59.518 -23.396  0.00  0.00    +0.000 HD
ENDBRANCH   8  27
BRANCH  18  29
ATOM     29  O   UNL     1     -74.069 -57.247 -26.815  0.00  0.00    +0.000 OA
BRANCH  29  31
ATOM     30  O   UNL     1     -74.341 -55.819 -28.543  0.00  0.00    +0.000 OA
ATOM     31  C   UNL     1     -73.609 -56.549 -27.883  0.00  0.00    +0.000 C 
BRANCH  31  32
ATOM     32  C   UNL     1     -72.168 -56.866 -28.298  0.00  0.00    +0.000 C 
BRANCH  32  33
ATOM     33  O   UNL     1     -71.209 -55.837 -28.029  0.00  0.00    +0.000 OA
ATOM     34  H   UNL     1     -70.921 -55.503 -28.899  0.00  0.00    +0.000 HD
ENDBRANCH  32  33
BRANCH  32  35
ATOM     35  C   UNL     1     -72.165 -57.269 -29.796  0.00  0.00    +0.000 C 
BRANCH  35  36
ATOM     36  C   UNL     1     -72.612 -58.711 -30.018  0.00  0.00    +0.000 A 
ATOM     37  C   UNL     1     -73.643 -58.984 -30.930  0.00  0.00    +0.000 A 
ATOM     38  C   UNL     1     -71.994 -59.789 -29.361  0.00  0.00    +0.000 A 
ATOM     39  C   UNL     1     -74.064 -60.296 -31.160  0.00  0.00    +0.000 A 
ATOM     40  C   UNL     1     -72.417 -61.099 -29.593  0.00  0.00    +0.000 A 
ATOM     41  C   UNL     1     -73.453 -61.352 -30.489  0.00  0.00    +0.000 A 
ENDBRANCH  35  36
BRANCH  35  43
ATOM     42  O   UNL     1     -71.529 -56.151 -32.366  0.00  0.00    +0.000 OA
ATOM     43  N   UNL     1     -70.850 -57.089 -30.395  0.00  0.00    +0.000 N 
ATOM     44  C   UNL     1     -70.663 -56.645 -31.664  0.00  0.00    +0.000 C 
ATOM     45  H   UNL     1     -70.073 -57.583 -29.975  0.00  0.00    +0.000 HD
BRANCH  44  46
ATOM     46  O   UNL     1     -69.366 -56.820 -31.996  0.00  0.00    +0.000 OA
BRANCH  46  47
ATOM     47  C   UNL     1     -68.966 -57.900 -32.879  0.00  0.00    +0.000 C 
ATOM     48  C   UNL     1     -68.989 -57.459 -34.346  0.00  0.00    +0.000 C 
ATOM     49  C   UNL     1     -67.515 -58.210 -32.482  0.00  0.00    +0.000 C 
ATOM     50  C   UNL     1     -69.817 -59.153 -32.644  0.00  0.00    +0.000 C 
ENDBRANCH  46  47
ENDBRANCH  44  46
ENDBRANCH  35  43
ENDBRANCH  32  35
ENDBRANCH  31  32
ENDBRANCH  29  31
ENDBRANCH  18  29
BRANCH   7  51
ATOM     51  O   UNL     1     -74.682 -57.438 -23.950  0.00  0.00    +0.000 OA
BRANCH  51  53
ATOM     52  O   UNL     1     -73.402 -56.139 -23.111  0.00  0.00    +0.000 OA
ATOM     53  C   UNL     1     -74.213 -56.150 -24.031  0.00  0.00    +0.000 C 
BRANCH  53  54
ATOM     54  C   UNL     1     -74.991 -54.792 -25.135  0.00  0.00    +0.000 A 
ATOM     55  C   UNL     1     -74.340 -53.540 -25.524  0.00  0.00    +0.000 A 
ATOM     56  C   UNL     1     -76.232 -54.850 -25.840  0.00  0.00    +0.000 A 
ATOM     57  C   UNL     1     -74.831 -52.558 -26.422  0.00  0.00    +0.000 A 
ATOM     58  C   UNL     1     -76.743 -53.874 -26.745  0.00  0.00    +0.000 A 
ATOM     59  C   UNL     1     -76.044 -52.728 -27.038  0.00  0.00    +0.000 A 
ENDBRANCH  53  54
ENDBRANCH  51  53
ENDBRANCH   7  51
BRANCH   4  60
ATOM     60  O   UNL     1     -76.543 -55.261 -22.478  0.00  0.00    +0.000 OA
BRANCH  60  62
ATOM     61  O   UNL     1     -75.719 -53.195 -22.240  0.00  0.00    +0.000 OA
ATOM     62  C   UNL     1     -76.702 -53.923 -22.358  0.00  0.00    +0.000 C 
ATOM     63  C   UNL     1     -78.086 -53.363 -22.253  0.00  0.00    +0.000 C 
ENDBRANCH  60  62
ENDBRANCH   4  60
TORSDOF 17
ENDMDL
MODEL 6
REMARK VINA RESULT:      -5.4     16.494     22.627
REMARK  Name = 
REMARK  25 active torsions:
REMARK  status: ('A' for Active; 'I' for Inactive)
REMARK    1  A    between atoms: O_2  and  C_17
REMARK    2  A    between atoms: O_2  and  C_36
REMARK    3  A    between atoms: O_3  and  C_20
REMARK    4  A    between atoms: O_3  and  C_37
REMARK    5  A    between atoms: O_4  and  C_21
REMARK    6  A    between atoms: O_5  and  C_22
REMARK    7  A    between atoms: O_7  and  C_30
REMARK    8  A    between atoms: O_8  and  C_31
REMARK    9  A    between atoms: O_8  and  C_39
REMARK   10  A    between atoms: O_12  and  C_41
REMARK   11  A    between atoms: O_13  and  C_51
REMARK   12  A    between atoms: O_13  and  C_55
REMARK   13  A    between atoms: N_15  and  C_44
REMARK   14  A    between atoms: C_18  and  C_29
REMARK   15  A    between atoms: C_24  and  C_33
REMARK   16  A    between atoms: C_24  and  C_34
REMARK   17  A    between atoms: C_32  and  C_35
REMARK   18  A    between atoms: C_36  and  C_38
REMARK   19  A    between atoms: C_37  and  C_40
REMARK   20  A    between atoms: C_39  and  C_41
REMARK   21  A    between atoms: C_41  and  C_44
REMARK   22  A    between atoms: C_44  and  C_48
REMARK   23  A    between atoms: C_55  and  C_56
REMARK   24  A    between atoms: C_55  and  C_57
REMARK   25  A    between atoms: C_55  and  C_58
REMARK                            x       y       z     vdW  Elec       q    Type
REMARK                         _______ _______ _______ _____ _____    ______ ____
ROOT
ATOM      1  O   UNL     1     -61.453 -40.865 -33.955  0.00  0.00    +0.000 OA
ATOM      2  O   UNL     1     -61.032 -46.960 -36.753  0.00  0.00    +0.000 OA
ATOM      3  C   UNL     1     -63.263 -43.433 -35.364  0.00  0.00    +0.000 C 
ATOM      4  C   UNL     1     -62.828 -42.489 -34.204  0.00  0.00    +0.000 C 
ATOM      5  C   UNL     1     -62.063 -44.902 -35.363  0.00  0.00    +0.000 C 
ATOM      6  C   UNL     1     -61.448 -42.028 -34.828  0.00  0.00    +0.000 C 
ATOM      7  C   UNL     1     -65.112 -43.662 -35.426  0.00  0.00    +0.000 C 
ATOM      8  C   UNL     1     -66.458 -44.593 -36.381  0.00  0.00    +0.000 C 
ATOM      9  C   UNL     1     -60.650 -44.235 -35.632  0.00  0.00    +0.000 C 
ATOM     10  C   UNL     1     -60.304 -43.013 -34.726  0.00  0.00    +0.000 C 
ATOM     11  C   UNL     1     -66.274 -45.933 -37.530  0.00  0.00    +0.000 C 
ATOM     12  C   UNL     1     -62.930 -40.917 -34.068  0.00  0.00    +0.000 C 
ATOM     13  C   UNL     1     -62.128 -46.453 -36.427  0.00  0.00    +0.000 C 
ATOM     14  C   UNL     1     -67.354 -45.302 -35.264  0.00  0.00    +0.000 C 
ATOM     15  C   UNL     1     -65.425 -47.136 -36.903  0.00  0.00    +0.000 C 
ATOM     16  C   UNL     1     -61.893 -45.541 -33.921  0.00  0.00    +0.000 C 
ATOM     17  C   UNL     1     -63.667 -47.387 -37.092  0.00  0.00    +0.000 C 
ATOM     18  C   UNL     1     -67.047 -46.830 -34.917  0.00  0.00    +0.000 C 
ATOM     19  C   UNL     1     -66.035 -47.659 -35.787  0.00  0.00    +0.000 C 
ATOM     20  C   UNL     1     -67.750 -46.509 -37.823  0.00  0.00    +0.000 C 
ATOM     21  C   UNL     1     -65.953 -45.619 -39.026  0.00  0.00    +0.000 C 
ATOM     22  C   UNL     1     -65.587 -48.951 -35.149  0.00  0.00    +0.000 C 
ENDROOT
BRANCH  17  23
ATOM     23  O   UNL     1     -63.505 -47.825 -38.441  0.00  0.00    +0.000 OA
ATOM     24  H   UNL     1     -63.522 -47.009 -38.975  0.00  0.00    +0.000 HD
ENDBRANCH  17  23
BRANCH   9  25
ATOM     25  O   UNL     1     -60.616 -43.770 -36.982  0.00  0.00    +0.000 OA
ATOM     26  H   UNL     1     -59.679 -43.729 -37.246  0.00  0.00    +0.000 HD
ENDBRANCH   9  25
BRANCH   8  27
ATOM     27  O   UNL     1     -67.270 -43.557 -36.966  0.00  0.00    +0.000 OA
ATOM     28  H   UNL     1     -67.294 -43.677 -37.932  0.00  0.00    +0.000 HD
ENDBRANCH   8  27
BRANCH  18  29
ATOM     29  O   UNL     1     -66.561 -46.881 -33.545  0.00  0.00    +0.000 OA
BRANCH  29  31
ATOM     30  O   UNL     1     -68.450 -46.680 -32.323  0.00  0.00    +0.000 OA
ATOM     31  C   UNL     1     -67.424 -47.298 -32.584  0.00  0.00    +0.000 C 
BRANCH  31  32
ATOM     32  C   UNL     1     -66.943 -48.490 -31.749  0.00  0.00    +0.000 C 
BRANCH  32  33
ATOM     33  O   UNL     1     -67.260 -49.782 -32.279  0.00  0.00    +0.000 OA
ATOM     34  H   UNL     1     -67.198 -49.697 -33.249  0.00  0.00    +0.000 HD
ENDBRANCH  32  33
BRANCH  32  35
ATOM     35  C   UNL     1     -67.477 -48.321 -30.301  0.00  0.00    +0.000 C 
BRANCH  35  36
ATOM     36  C   UNL     1     -66.428 -48.652 -29.245  0.00  0.00    +0.000 A 
ATOM     37  C   UNL     1     -65.254 -49.325 -29.622  0.00  0.00    +0.000 A 
ATOM     38  C   UNL     1     -66.579 -48.271 -27.902  0.00  0.00    +0.000 A 
ATOM     39  C   UNL     1     -64.271 -49.630 -28.677  0.00  0.00    +0.000 A 
ATOM     40  C   UNL     1     -65.596 -48.578 -26.959  0.00  0.00    +0.000 A 
ATOM     41  C   UNL     1     -64.444 -49.260 -27.347  0.00  0.00    +0.000 A 
ENDBRANCH  35  36
BRANCH  35  43
ATOM     42  O   UNL     1     -70.096 -47.478 -29.471  0.00  0.00    +0.000 OA
ATOM     43  N   UNL     1     -68.653 -49.148 -30.068  0.00  0.00    +0.000 N 
ATOM     44  C   UNL     1     -69.820 -48.661 -29.573  0.00  0.00    +0.000 C 
ATOM     45  H   UNL     1     -68.514 -50.146 -29.983  0.00  0.00    +0.000 HD
BRANCH  44  46
ATOM     46  O   UNL     1     -70.617 -49.700 -29.246  0.00  0.00    +0.000 OA
BRANCH  46  47
ATOM     47  C   UNL     1     -71.534 -50.266 -30.218  0.00  0.00    +0.000 C 
ATOM     48  C   UNL     1     -71.308 -51.771 -30.390  0.00  0.00    +0.000 C 
ATOM     49  C   UNL     1     -72.928 -50.045 -29.612  0.00  0.00    +0.000 C 
ATOM     50  C   UNL     1     -71.456 -49.519 -31.554  0.00  0.00    +0.000 C 
ENDBRANCH  46  47
ENDBRANCH  44  46
ENDBRANCH  35  43
ENDBRANCH  32  35
ENDBRANCH  31  32
ENDBRANCH  29  31
ENDBRANCH  18  29
BRANCH   7  51
ATOM     51  O   UNL     1     -64.914 -44.741 -34.697  0.00  0.00    +0.000 OA
BRANCH  51  53
ATOM     52  O   UNL     1     -65.890 -43.091 -34.099  0.00  0.00    +0.000 OA
ATOM     53  C   UNL     1     -65.463 -44.127 -33.598  0.00  0.00    +0.000 C 
BRANCH  53  54
ATOM     54  C   UNL     1     -65.223 -44.734 -31.797  0.00  0.00    +0.000 A 
ATOM     55  C   UNL     1     -64.186 -45.664 -31.348  0.00  0.00    +0.000 A 
ATOM     56  C   UNL     1     -65.909 -44.281 -30.628  0.00  0.00    +0.000 A 
ATOM     57  C   UNL     1     -63.903 -46.057 -30.015  0.00  0.00    +0.000 A 
ATOM     58  C   UNL     1     -65.639 -44.664 -29.282  0.00  0.00    +0.000 A 
ATOM     59  C   UNL     1     -64.637 -45.551 -28.973  0.00  0.00    +0.000 A 
ENDBRANCH  53  54
ENDBRANCH  51  53
ENDBRANCH   7  51
BRANCH   4  60
ATOM     60  O   UNL     1     -62.708 -43.185 -32.941  0.00  0.00    +0.000 OA
BRANCH  60  62
ATOM     61  O   UNL     1     -63.473 -41.848 -31.319  0.00  0.00    +0.000 OA
ATOM     62  C   UNL     1     -62.574 -42.570 -31.744  0.00  0.00    +0.000 C 
ATOM     63  C   UNL     1     -61.276 -42.688 -31.009  0.00  0.00    +0.000 C 
ENDBRANCH  60  62
ENDBRANCH   4  60
TORSDOF 17
ENDMDL
MODEL 7
REMARK VINA RESULT:      -5.4     30.519     35.995
REMARK  Name = 
REMARK  25 active torsions:
REMARK  status: ('A' for Active; 'I' for Inactive)
REMARK    1  A    between atoms: O_2  and  C_17
REMARK    2  A    between atoms: O_2  and  C_36
REMARK    3  A    between atoms: O_3  and  C_20
REMARK    4  A    between atoms: O_3  and  C_37
REMARK    5  A    between atoms: O_4  and  C_21
REMARK    6  A    between atoms: O_5  and  C_22
REMARK    7  A    between atoms: O_7  and  C_30
REMARK    8  A    between atoms: O_8  and  C_31
REMARK    9  A    between atoms: O_8  and  C_39
REMARK   10  A    between atoms: O_12  and  C_41
REMARK   11  A    between atoms: O_13  and  C_51
REMARK   12  A    between atoms: O_13  and  C_55
REMARK   13  A    between atoms: N_15  and  C_44
REMARK   14  A    between atoms: C_18  and  C_29
REMARK   15  A    between atoms: C_24  and  C_33
REMARK   16  A    between atoms: C_24  and  C_34
REMARK   17  A    between atoms: C_32  and  C_35
REMARK   18  A    between atoms: C_36  and  C_38
REMARK   19  A    between atoms: C_37  and  C_40
REMARK   20  A    between atoms: C_39  and  C_41
REMARK   21  A    between atoms: C_41  and  C_44
REMARK   22  A    between atoms: C_44  and  C_48
REMARK   23  A    between atoms: C_55  and  C_56
REMARK   24  A    between atoms: C_55  and  C_57
REMARK   25  A    between atoms: C_55  and  C_58
REMARK                            x       y       z     vdW  Elec       q    Type
REMARK                         _______ _______ _______ _____ _____    ______ ____
ROOT
ATOM      1  O   UNL     1     -59.255 -55.093 -13.565  0.00  0.00    +0.000 OA
ATOM      2  O   UNL     1     -61.224 -49.084 -15.841  0.00  0.00    +0.000 OA
ATOM      3  C   UNL     1     -61.524 -53.465 -15.580  0.00  0.00    +0.000 C 
ATOM      4  C   UNL     1     -60.341 -54.435 -15.292  0.00  0.00    +0.000 C 
ATOM      5  C   UNL     1     -60.779 -51.736 -15.815  0.00  0.00    +0.000 C 
ATOM      6  C   UNL     1     -59.941 -53.849 -13.876  0.00  0.00    +0.000 C 
ATOM      7  C   UNL     1     -62.748 -54.190 -16.785  0.00  0.00    +0.000 C 
ATOM      8  C   UNL     1     -64.351 -53.768 -17.701  0.00  0.00    +0.000 C 
ATOM      9  C   UNL     1     -60.082 -51.433 -14.424  0.00  0.00    +0.000 C 
ATOM     10  C   UNL     1     -59.148 -52.559 -13.884  0.00  0.00    +0.000 C 
ATOM     11  C   UNL     1     -65.139 -52.187 -17.885  0.00  0.00    +0.000 C 
ATOM     12  C   UNL     1     -60.281 -55.747 -14.412  0.00  0.00    +0.000 C 
ATOM     13  C   UNL     1     -61.661 -50.152 -16.322  0.00  0.00    +0.000 C 
ATOM     14  C   UNL     1     -64.066 -54.118 -19.234  0.00  0.00    +0.000 C 
ATOM     15  C   UNL     1     -64.129 -51.089 -18.464  0.00  0.00    +0.000 C 
ATOM     16  C   UNL     1     -59.565 -51.736 -16.836  0.00  0.00    +0.000 C 
ATOM     17  C   UNL     1     -63.163 -49.941 -17.497  0.00  0.00    +0.000 C 
ATOM     18  C   UNL     1     -63.622 -52.930 -20.203  0.00  0.00    +0.000 C 
ATOM     19  C   UNL     1     -63.661 -51.439 -19.709  0.00  0.00    +0.000 C 
ATOM     20  C   UNL     1     -66.309 -52.367 -18.977  0.00  0.00    +0.000 C 
ATOM     21  C   UNL     1     -66.087 -51.670 -16.756  0.00  0.00    +0.000 C 
ATOM     22  C   UNL     1     -62.900 -50.477 -20.587  0.00  0.00    +0.000 C 
ENDROOT
BRANCH  17  23
ATOM     23  O   UNL     1     -64.107 -48.983 -17.017  0.00  0.00    +0.000 OA
ATOM     24  H   UNL     1     -64.861 -49.043 -17.634  0.00  0.00    +0.000 HD
ENDBRANCH  17  23
BRANCH   9  25
ATOM     25  O   UNL     1     -61.098 -51.233 -13.440  0.00  0.00    +0.000 OA
ATOM     26  H   UNL     1     -60.714 -50.671 -12.743  0.00  0.00    +0.000 HD
ENDBRANCH   9  25
BRANCH   8  27
ATOM     27  O   UNL     1     -65.307 -54.736 -17.227  0.00  0.00    +0.000 OA
ATOM     28  H   UNL     1     -65.873 -55.015 -17.968  0.00  0.00    +0.000 HD
ENDBRANCH   8  27
BRANCH  18  29
ATOM     29  O   UNL     1     -62.254 -53.195 -20.627  0.00  0.00    +0.000 OA
BRANCH  29  31
ATOM     30  O   UNL     1     -62.357 -54.983 -22.004  0.00  0.00    +0.000 OA
ATOM     31  C   UNL     1     -62.070 -53.804 -21.826  0.00  0.00    +0.000 C 
BRANCH  31  32
ATOM     32  C   UNL     1     -61.334 -52.965 -22.876  0.00  0.00    +0.000 C 
BRANCH  32  33
ATOM     33  O   UNL     1     -62.143 -52.480 -23.954  0.00  0.00    +0.000 OA
ATOM     34  H   UNL     1     -63.024 -52.305 -23.573  0.00  0.00    +0.000 HD
ENDBRANCH  32  33
BRANCH  32  35
ATOM     35  C   UNL     1     -60.123 -53.785 -23.397  0.00  0.00    +0.000 C 
BRANCH  35  36
ATOM     36  C   UNL     1     -58.885 -52.924 -23.622  0.00  0.00    +0.000 A 
ATOM     37  C   UNL     1     -58.834 -51.628 -23.085  0.00  0.00    +0.000 A 
ATOM     38  C   UNL     1     -57.765 -53.402 -24.324  0.00  0.00    +0.000 A 
ATOM     39  C   UNL     1     -57.708 -50.822 -23.266  0.00  0.00    +0.000 A 
ATOM     40  C   UNL     1     -56.640 -52.594 -24.505  0.00  0.00    +0.000 A 
ATOM     41  C   UNL     1     -56.613 -51.305 -23.978  0.00  0.00    +0.000 A 
ENDBRANCH  35  36
BRANCH  35  43
ATOM     42  O   UNL     1     -60.248 -56.618 -23.857  0.00  0.00    +0.000 OA
ATOM     43  N   UNL     1     -60.443 -54.479 -24.637  0.00  0.00    +0.000 N 
ATOM     44  C   UNL     1     -60.371 -55.827 -24.776  0.00  0.00    +0.000 C 
ATOM     45  H   UNL     1     -60.425 -53.940 -25.493  0.00  0.00    +0.000 HD
BRANCH  44  46
ATOM     46  O   UNL     1     -60.486 -56.132 -26.086  0.00  0.00    +0.000 OA
BRANCH  46  47
ATOM     47  C   UNL     1     -59.447 -56.882 -26.767  0.00  0.00    +0.000 C 
ATOM     48  C   UNL     1     -59.170 -58.216 -26.066  0.00  0.00    +0.000 C 
ATOM     49  C   UNL     1     -60.024 -57.170 -28.161  0.00  0.00    +0.000 C 
ATOM     50  C   UNL     1     -58.174 -56.044 -26.927  0.00  0.00    +0.000 C 
ENDBRANCH  46  47
ENDBRANCH  44  46
ENDBRANCH  35  43
ENDBRANCH  32  35
ENDBRANCH  31  32
ENDBRANCH  29  31
ENDBRANCH  18  29
BRANCH   7  51
ATOM     51  O   UNL     1     -62.073 -53.554 -17.718  0.00  0.00    +0.000 OA
BRANCH  51  53
ATOM     52  O   UNL     1     -62.186 -55.547 -17.509  0.00  0.00    +0.000 OA
ATOM     53  C   UNL     1     -61.559 -54.738 -18.186  0.00  0.00    +0.000 C 
BRANCH  53  54
ATOM     54  C   UNL     1     -60.038 -54.867 -19.344  0.00  0.00    +0.000 A 
ATOM     55  C   UNL     1     -59.064 -53.802 -19.584  0.00  0.00    +0.000 A 
ATOM     56  C   UNL     1     -59.558 -56.029 -20.023  0.00  0.00    +0.000 A 
ATOM     57  C   UNL     1     -57.869 -53.885 -20.344  0.00  0.00    +0.000 A 
ATOM     58  C   UNL     1     -58.362 -56.132 -20.791  0.00  0.00    +0.000 A 
ATOM     59  C   UNL     1     -57.516 -55.062 -20.952  0.00  0.00    +0.000 A 
ENDBRANCH  53  54
ENDBRANCH  51  53
ENDBRANCH   7  51
BRANCH   4  60
ATOM     60  O   UNL     1     -59.297 -54.345 -16.290  0.00  0.00    +0.000 OA
BRANCH  60  62
ATOM     61  O   UNL     1     -58.531 -56.405 -16.703  0.00  0.00    +0.000 OA
ATOM     62  C   UNL     1     -58.286 -55.236 -16.416  0.00  0.00    +0.000 C 
ATOM     63  C   UNL     1     -56.892 -54.803 -16.087  0.00  0.00    +0.000 C 
ENDBRANCH  60  62
ENDBRANCH   4  60
TORSDOF 17
ENDMDL
MODEL 8
REMARK VINA RESULT:      -5.4      2.619      8.759
REMARK  Name = 
REMARK  25 active torsions:
REMARK  status: ('A' for Active; 'I' for Inactive)
REMARK    1  A    between atoms: O_2  and  C_17
REMARK    2  A    between atoms: O_2  and  C_36
REMARK    3  A    between atoms: O_3  and  C_20
REMARK    4  A    between atoms: O_3  and  C_37
REMARK    5  A    between atoms: O_4  and  C_21
REMARK    6  A    between atoms: O_5  and  C_22
REMARK    7  A    between atoms: O_7  and  C_30
REMARK    8  A    between atoms: O_8  and  C_31
REMARK    9  A    between atoms: O_8  and  C_39
REMARK   10  A    between atoms: O_12  and  C_41
REMARK   11  A    between atoms: O_13  and  C_51
REMARK   12  A    between atoms: O_13  and  C_55
REMARK   13  A    between atoms: N_15  and  C_44
REMARK   14  A    between atoms: C_18  and  C_29
REMARK   15  A    between atoms: C_24  and  C_33
REMARK   16  A    between atoms: C_24  and  C_34
REMARK   17  A    between atoms: C_32  and  C_35
REMARK   18  A    between atoms: C_36  and  C_38
REMARK   19  A    between atoms: C_37  and  C_40
REMARK   20  A    between atoms: C_39  and  C_41
REMARK   21  A    between atoms: C_41  and  C_44
REMARK   22  A    between atoms: C_44  and  C_48
REMARK   23  A    between atoms: C_55  and  C_56
REMARK   24  A    between atoms: C_55  and  C_57
REMARK   25  A    between atoms: C_55  and  C_58
REMARK                            x       y       z     vdW  Elec       q    Type
REMARK                         _______ _______ _______ _____ _____    ______ ____
ROOT
ATOM      1  O   UNL     1     -70.666 -42.803 -60.145  0.00  0.00    +0.000 OA
ATOM      2  O   UNL     1     -71.087 -49.361 -58.744  0.00  0.00    +0.000 OA
ATOM      3  C   UNL     1     -70.344 -45.163 -57.659  0.00  0.00    +0.000 C 
ATOM      4  C   UNL     1     -69.825 -44.060 -58.627  0.00  0.00    +0.000 C 
ATOM      5  C   UNL     1     -70.246 -46.812 -58.595  0.00  0.00    +0.000 C 
ATOM      6  C   UNL     1     -71.013 -44.132 -59.671  0.00  0.00    +0.000 C 
ATOM      7  C   UNL     1     -69.667 -44.960 -55.935  0.00  0.00    +0.000 C 
ATOM      8  C   UNL     1     -69.693 -45.779 -54.227  0.00  0.00    +0.000 C 
ATOM      9  C   UNL     1     -71.212 -46.600 -59.834  0.00  0.00    +0.000 C 
ATOM     10  C   UNL     1     -70.979 -45.289 -60.647  0.00  0.00    +0.000 C 
ATOM     11  C   UNL     1     -70.280 -47.394 -53.783  0.00  0.00    +0.000 C 
ATOM     12  C   UNL     1     -70.226 -42.536 -58.755  0.00  0.00    +0.000 C 
ATOM     13  C   UNL     1     -70.598 -48.540 -57.938  0.00  0.00    +0.000 C 
ATOM     14  C   UNL     1     -68.159 -45.911 -53.799  0.00  0.00    +0.000 C 
ATOM     15  C   UNL     1     -69.610 -48.534 -54.684  0.00  0.00    +0.000 C 
ATOM     16  C   UNL     1     -68.829 -47.037 -59.273  0.00  0.00    +0.000 C 
ATOM     17  C   UNL     1     -70.303 -49.234 -56.174  0.00  0.00    +0.000 C 
ATOM     18  C   UNL     1     -67.427 -47.306 -54.059  0.00  0.00    +0.000 C 
ATOM     19  C   UNL     1     -68.244 -48.560 -54.534  0.00  0.00    +0.000 C 
ATOM     20  C   UNL     1     -69.813 -47.665 -52.265  0.00  0.00    +0.000 C 
ATOM     21  C   UNL     1     -71.801 -47.601 -53.493  0.00  0.00    +0.000 C 
ATOM     22  C   UNL     1     -67.392 -49.686 -55.066  0.00  0.00    +0.000 C 
ENDROOT
BRANCH  17  23
ATOM     23  O   UNL     1     -71.375 -50.063 -55.722  0.00  0.00    +0.000 OA
ATOM     24  H   UNL     1     -72.116 -49.449 -55.558  0.00  0.00    +0.000 HD
ENDBRANCH  17  23
BRANCH   9  25
ATOM     25  O   UNL     1     -72.558 -46.558 -59.360  0.00  0.00    +0.000 OA
ATOM     26  H   UNL     1     -72.517 -46.455 -58.393  0.00  0.00    +0.000 HD
ENDBRANCH   9  25
BRANCH   8  27
ATOM     27  O   UNL     1     -70.281 -44.790 -53.359  0.00  0.00    +0.000 OA
ATOM     28  H   UNL     1     -71.137 -45.121 -53.033  0.00  0.00    +0.000 HD
ENDBRANCH   8  27
BRANCH  18  29
ATOM     29  O   UNL     1     -66.390 -47.078 -55.057  0.00  0.00    +0.000 OA
BRANCH  29  31
ATOM     30  O   UNL     1     -64.164 -47.299 -55.374  0.00  0.00    +0.000 OA
ATOM     31  C   UNL     1     -65.103 -47.031 -54.631  0.00  0.00    +0.000 C 
BRANCH  31  32
ATOM     32  C   UNL     1     -64.922 -46.784 -53.129  0.00  0.00    +0.000 C 
BRANCH  32  33
ATOM     33  O   UNL     1     -64.516 -45.459 -52.767  0.00  0.00    +0.000 OA
ATOM     34  H   UNL     1     -64.217 -45.512 -51.840  0.00  0.00    +0.000 HD
ENDBRANCH  32  33
BRANCH  32  35
ATOM     35  C   UNL     1     -63.943 -47.851 -52.570  0.00  0.00    +0.000 C 
BRANCH  35  36
ATOM     36  C   UNL     1     -64.524 -49.260 -52.611  0.00  0.00    +0.000 A 
ATOM     37  C   UNL     1     -65.646 -49.571 -51.826  0.00  0.00    +0.000 A 
ATOM     38  C   UNL     1     -63.993 -50.259 -53.445  0.00  0.00    +0.000 A 
ATOM     39  C   UNL     1     -66.205 -50.850 -51.853  0.00  0.00    +0.000 A 
ATOM     40  C   UNL     1     -64.554 -51.537 -53.470  0.00  0.00    +0.000 A 
ATOM     41  C   UNL     1     -65.657 -51.833 -52.672  0.00  0.00    +0.000 A 
ENDBRANCH  35  36
BRANCH  35  43
ATOM     42  O   UNL     1     -61.939 -45.994 -51.678  0.00  0.00    +0.000 OA
ATOM     43  N   UNL     1     -63.548 -47.547 -51.202  0.00  0.00    +0.000 N 
ATOM     44  C   UNL     1     -62.512 -46.727 -50.890  0.00  0.00    +0.000 C 
ATOM     45  H   UNL     1     -63.847 -48.185 -50.476  0.00  0.00    +0.000 HD
BRANCH  44  46
ATOM     46  O   UNL     1     -62.251 -46.845 -49.571  0.00  0.00    +0.000 OA
BRANCH  46  47
ATOM     47  C   UNL     1     -62.443 -45.720 -48.674  0.00  0.00    +0.000 C 
ATOM     48  C   UNL     1     -63.786 -45.028 -48.925  0.00  0.00    +0.000 C 
ATOM     49  C   UNL     1     -62.466 -46.342 -47.269  0.00  0.00    +0.000 C 
ATOM     50  C   UNL     1     -61.268 -44.738 -48.757  0.00  0.00    +0.000 C 
ENDBRANCH  46  47
ENDBRANCH  44  46
ENDBRANCH  35  43
ENDBRANCH  32  35
ENDBRANCH  31  32
ENDBRANCH  29  31
ENDBRANCH  18  29
BRANCH   7  51
ATOM     51  O   UNL     1     -68.724 -45.802 -56.301  0.00  0.00    +0.000 OA
BRANCH  51  53
ATOM     52  O   UNL     1     -68.458 -43.858 -55.878  0.00  0.00    +0.000 OA
ATOM     53  C   UNL     1     -67.795 -44.791 -56.319  0.00  0.00    +0.000 C 
BRANCH  53  54
ATOM     54  C   UNL     1     -66.079 -44.923 -57.161  0.00  0.00    +0.000 A 
ATOM     55  C   UNL     1     -64.910 -44.107 -56.834  0.00  0.00    +0.000 A 
ATOM     56  C   UNL     1     -65.651 -45.899 -58.113  0.00  0.00    +0.000 A 
ATOM     57  C   UNL     1     -63.597 -44.240 -57.353  0.00  0.00    +0.000 A 
ATOM     58  C   UNL     1     -64.337 -46.048 -58.646  0.00  0.00    +0.000 A 
ATOM     59  C   UNL     1     -63.309 -45.220 -58.267  0.00  0.00    +0.000 A 
ENDBRANCH  53  54
ENDBRANCH  51  53
ENDBRANCH   7  51
BRANCH   4  60
ATOM     60  O   UNL     1     -68.526 -44.377 -59.181  0.00  0.00    +0.000 OA
BRANCH  60  62
ATOM     61  O   UNL     1     -67.199 -42.576 -59.199  0.00  0.00    +0.000 OA
ATOM     62  C   UNL     1     -67.736 -43.487 -59.826  0.00  0.00    +0.000 C 
ATOM     63  C   UNL     1     -67.624 -43.561 -61.316  0.00  0.00    +0.000 C 
ENDBRANCH  60  62
ENDBRANCH   4  60
TORSDOF 17
ENDMDL
MODEL 9
REMARK VINA RESULT:      -5.4     14.355     19.471
REMARK  Name = 
REMARK  25 active torsions:
REMARK  status: ('A' for Active; 'I' for Inactive)
REMARK    1  A    between atoms: O_2  and  C_17
REMARK    2  A    between atoms: O_2  and  C_36
REMARK    3  A    between atoms: O_3  and  C_20
REMARK    4  A    between atoms: O_3  and  C_37
REMARK    5  A    between atoms: O_4  and  C_21
REMARK    6  A    between atoms: O_5  and  C_22
REMARK    7  A    between atoms: O_7  and  C_30
REMARK    8  A    between atoms: O_8  and  C_31
REMARK    9  A    between atoms: O_8  and  C_39
REMARK   10  A    between atoms: O_12  and  C_41
REMARK   11  A    between atoms: O_13  and  C_51
REMARK   12  A    between atoms: O_13  and  C_55
REMARK   13  A    between atoms: N_15  and  C_44
REMARK   14  A    between atoms: C_18  and  C_29
REMARK   15  A    between atoms: C_24  and  C_33
REMARK   16  A    between atoms: C_24  and  C_34
REMARK   17  A    between atoms: C_32  and  C_35
REMARK   18  A    between atoms: C_36  and  C_38
REMARK   19  A    between atoms: C_37  and  C_40
REMARK   20  A    between atoms: C_39  and  C_41
REMARK   21  A    between atoms: C_41  and  C_44
REMARK   22  A    between atoms: C_44  and  C_48
REMARK   23  A    between atoms: C_55  and  C_56
REMARK   24  A    between atoms: C_55  and  C_57
REMARK   25  A    between atoms: C_55  and  C_58
REMARK                            x       y       z     vdW  Elec       q    Type
REMARK                         _______ _______ _______ _____ _____    ______ ____
ROOT
ATOM      1  O   UNL     1     -58.786 -64.406 -65.866  0.00  0.00    +0.000 OA
ATOM      2  O   UNL     1     -56.180 -58.278 -66.762  0.00  0.00    +0.000 OA
ATOM      3  C   UNL     1     -56.545 -62.105 -64.625  0.00  0.00    +0.000 C 
ATOM      4  C   UNL     1     -57.824 -62.992 -64.575  0.00  0.00    +0.000 C 
ATOM      5  C   UNL     1     -57.031 -60.480 -65.475  0.00  0.00    +0.000 C 
ATOM      6  C   UNL     1     -57.956 -63.244 -66.133  0.00  0.00    +0.000 C 
ATOM      7  C   UNL     1     -55.603 -62.141 -63.017  0.00  0.00    +0.000 C 
ATOM      8  C   UNL     1     -54.074 -61.400 -62.180  0.00  0.00    +0.000 C 
ATOM      9  C   UNL     1     -57.501 -60.935 -66.919  0.00  0.00    +0.000 C 
ATOM     10  C   UNL     1     -58.530 -62.106 -66.949  0.00  0.00    +0.000 C 
ATOM     11  C   UNL     1     -53.074 -60.032 -62.710  0.00  0.00    +0.000 C 
ATOM     12  C   UNL     1     -57.985 -64.564 -64.629  0.00  0.00    +0.000 C 
ATOM     13  C   UNL     1     -55.977 -58.940 -65.721  0.00  0.00    +0.000 C 
ATOM     14  C   UNL     1     -54.591 -60.841 -60.775  0.00  0.00    +0.000 C 
ATOM     15  C   UNL     1     -53.960 -58.729 -62.992  0.00  0.00    +0.000 C 
ATOM     16  C   UNL     1     -58.343 -59.842 -64.851  0.00  0.00    +0.000 C 
ATOM     17  C   UNL     1     -54.611 -58.227 -64.577  0.00  0.00    +0.000 C 
ATOM     18  C   UNL     1     -54.954 -59.290 -60.675  0.00  0.00    +0.000 C 
ATOM     19  C   UNL     1     -54.622 -58.314 -61.860  0.00  0.00    +0.000 C 
ATOM     20  C   UNL     1     -52.086 -59.670 -61.492  0.00  0.00    +0.000 C 
ATOM     21  C   UNL     1     -51.929 -60.278 -63.744  0.00  0.00    +0.000 C 
ATOM     22  C   UNL     1     -55.321 -56.979 -61.776  0.00  0.00    +0.000 C 
ENDROOT
BRANCH  17  23
ATOM     23  O   UNL     1     -53.477 -57.752 -65.303  0.00  0.00    +0.000 OA
ATOM     24  H   UNL     1     -53.226 -58.491 -65.889  0.00  0.00    +0.000 HD
ENDBRANCH  17  23
BRANCH   9  25
ATOM     25  O   UNL     1     -56.357 -61.372 -67.653  0.00  0.00    +0.000 OA
ATOM     26  H   UNL     1     -55.879 -62.005 -67.087  0.00  0.00    +0.000 HD
ENDBRANCH   9  25
BRANCH   8  27
ATOM     27  O   UNL     1     -53.233 -62.534 -61.889  0.00  0.00    +0.000 OA
ATOM     28  H   UNL     1     -53.036 -63.005 -62.718  0.00  0.00    +0.000 HD
ENDBRANCH   8  27
BRANCH  18  29
ATOM     29  O   UNL     1     -56.388 -59.187 -60.437  0.00  0.00    +0.000 OA
BRANCH  29  31
ATOM     30  O   UNL     1     -57.017 -60.160 -58.498  0.00  0.00    +0.000 OA
ATOM     31  C   UNL     1     -56.813 -59.141 -59.150  0.00  0.00    +0.000 C 
BRANCH  31  32
ATOM     32  C   UNL     1     -57.172 -57.744 -58.632  0.00  0.00    +0.000 C 
BRANCH  32  33
ATOM     33  O   UNL     1     -56.560 -57.370 -57.392  0.00  0.00    +0.000 OA
ATOM     34  H   UNL     1     -56.688 -56.406 -57.308  0.00  0.00    +0.000 HD
ENDBRANCH  32  33
BRANCH  32  35
ATOM     35  C   UNL     1     -58.718 -57.630 -58.561  0.00  0.00    +0.000 C 
BRANCH  35  36
ATOM     36  C   UNL     1     -59.261 -56.475 -59.395  0.00  0.00    +0.000 A 
ATOM     37  C   UNL     1     -60.616 -56.120 -59.290  0.00  0.00    +0.000 A 
ATOM     38  C   UNL     1     -58.436 -55.721 -60.247  0.00  0.00    +0.000 A 
ATOM     39  C   UNL     1     -61.137 -55.060 -60.035  0.00  0.00    +0.000 A 
ATOM     40  C   UNL     1     -58.960 -54.662 -60.991  0.00  0.00    +0.000 A 
ATOM     41  C   UNL     1     -60.310 -54.333 -60.887  0.00  0.00    +0.000 A 
ENDBRANCH  35  36
BRANCH  35  43
ATOM     42  O   UNL     1     -59.720 -59.657 -56.787  0.00  0.00    +0.000 OA
ATOM     43  N   UNL     1     -59.178 -57.473 -57.187  0.00  0.00    +0.000 N 
ATOM     44  C   UNL     1     -59.734 -58.480 -56.468  0.00  0.00    +0.000 C 
ATOM     45  H   UNL     1     -59.369 -56.534 -56.863  0.00  0.00    +0.000 HD
BRANCH  44  46
ATOM     46  O   UNL     1     -60.271 -57.962 -55.343  0.00  0.00    +0.000 OA
BRANCH  46  47
ATOM     47  C   UNL     1     -61.685 -57.646 -55.275  0.00  0.00    +0.000 C 
ATOM     48  C   UNL     1     -62.204 -57.712 -53.834  0.00  0.00    +0.000 C 
ATOM     49  C   UNL     1     -61.783 -56.193 -55.766  0.00  0.00    +0.000 C 
ATOM     50  C   UNL     1     -62.500 -58.538 -56.218  0.00  0.00    +0.000 C 
ENDBRANCH  46  47
ENDBRANCH  44  46
ENDBRANCH  35  43
ENDBRANCH  32  35
ENDBRANCH  31  32
ENDBRANCH  29  31
ENDBRANCH  18  29
BRANCH   7  51
ATOM     51  O   UNL     1     -56.276 -61.055 -62.700  0.00  0.00    +0.000 OA
BRANCH  51  53
ATOM     52  O   UNL     1     -56.450 -62.835 -61.788  0.00  0.00    +0.000 OA
ATOM     53  C   UNL     1     -57.051 -61.766 -61.817  0.00  0.00    +0.000 C 
BRANCH  53  54
ATOM     54  C   UNL     1     -58.759 -61.182 -61.175  0.00  0.00    +0.000 A 
ATOM     55  C   UNL     1     -59.552 -61.853 -60.145  0.00  0.00    +0.000 A 
ATOM     56  C   UNL     1     -59.437 -59.965 -61.494  0.00  0.00    +0.000 A 
ATOM     57  C   UNL     1     -60.765 -61.403 -59.565  0.00  0.00    +0.000 A 
ATOM     58  C   UNL     1     -60.656 -59.496 -60.922  0.00  0.00    +0.000 A 
ATOM     59  C   UNL     1     -61.321 -60.212 -59.957  0.00  0.00    +0.000 A 
ENDBRANCH  53  54
ENDBRANCH  51  53
ENDBRANCH   7  51
BRANCH   4  60
ATOM     60  O   UNL     1     -58.952 -62.303 -63.986  0.00  0.00    +0.000 OA
BRANCH  60  62
ATOM     61  O   UNL     1     -60.200 -63.815 -62.910  0.00  0.00    +0.000 OA
ATOM     62  C   UNL     1     -60.142 -62.886 -63.713  0.00  0.00    +0.000 C 
ATOM     63  C   UNL     1     -61.351 -62.465 -64.485  0.00  0.00    +0.000 C 
ENDBRANCH  60  62
ENDBRANCH   4  60
TORSDOF 17
ENDMDL
