MODEL 1
REMARK VINA RESULT:      -5.6      0.000      0.000
REMARK  Name = Dronabinol.pdbqt.pdb
REMARK  3 active torsions:
REMARK  status: ('A' for Active; 'I' for Inactive)
REMARK    1  A    between atoms: C_13  and  O_18
REMARK    2  A    between atoms: C_16  and  C_20
REMARK    3  A    between atoms: C_21  and  C_22
REMARK                            x       y       z     vdW  Elec       q    Type
REMARK                         _______ _______ _______ _____ _____    ______ ____
ROOT
ATOM      1  O   UNL     1     -54.017 -56.883 -64.808  0.00  0.00    +0.000 OA
ATOM      2  C   UNL     1     -55.735 -58.158 -63.584  0.00  0.00    +0.000 A 
ATOM      3  C   UNL     1     -56.235 -58.638 -64.896  0.00  0.00    +0.000 A 
ATOM      4  C   UNL     1     -54.378 -57.508 -63.554  0.00  0.00    +0.000 C 
ATOM      5  C   UNL     1     -56.552 -58.600 -62.484  0.00  0.00    +0.000 A 
ATOM      6  C   UNL     1     -55.479 -58.361 -66.115  0.00  0.00    +0.000 A 
ATOM      7  C   UNL     1     -57.833 -59.442 -62.630  0.00  0.00    +0.000 A 
ATOM      8  C   UNL     1     -57.459 -59.402 -64.785  0.00  0.00    +0.000 A 
ATOM      9  C   UNL     1     -58.322 -59.865 -63.912  0.00  0.00    +0.000 A 
ATOM     10  C   UNL     1     -54.392 -57.482 -65.986  0.00  0.00    +0.000 A 
ATOM     11  C   UNL     1     -54.377 -56.372 -62.495  0.00  0.00    +0.000 C 
ATOM     12  C   UNL     1     -53.299 -58.575 -63.204  0.00  0.00    +0.000 C 
ATOM     13  C   UNL     1     -55.767 -58.882 -67.382  0.00  0.00    +0.000 A 
ATOM     14  C   UNL     1     -53.642 -57.113 -67.103  0.00  0.00    +0.000 A 
ATOM     15  C   UNL     1     -59.789 -59.841 -64.204  0.00  0.00    +0.000 C 
ATOM     16  C   UNL     1     -53.943 -57.641 -68.354  0.00  0.00    +0.000 A 
ATOM     17  C   UNL     1     -55.003 -58.528 -68.496  0.00  0.00    +0.000 A 
ENDROOT
BRANCH  13  18
ATOM     18  O   UNL     1     -56.801 -59.759 -67.554  0.00  0.00    +0.000 OA
ATOM     19  H   UNL     1     -56.459 -60.590 -67.929  0.00  0.00    +0.000 HD
ENDBRANCH  13  18
BRANCH  16  20
ATOM     20  C   UNL     1     -53.157 -57.282 -69.485  0.00  0.00    +0.000 C 
ATOM     21  C   UNL     1     -52.323 -56.889 -70.710  0.00  0.00    +0.000 C 
BRANCH  21  22
ATOM     22  C   UNL     1     -51.497 -56.491 -71.936  0.00  0.00    +0.000 C 
ATOM     23  C   UNL     1     -50.673 -56.095 -73.166  0.00  0.00    +0.000 C 
ATOM     24  C   UNL     1     -49.851 -55.700 -74.397  0.00  0.00    +0.000 C 
ENDBRANCH  21  22
ENDBRANCH  16  20
TORSDOF 3
ENDMDL
MODEL 2
REMARK VINA RESULT:      -5.5     15.305     17.133
REMARK  Name = Dronabinol.pdbqt.pdb
REMARK  3 active torsions:
REMARK  status: ('A' for Active; 'I' for Inactive)
REMARK    1  A    between atoms: C_13  and  O_18
REMARK    2  A    between atoms: C_16  and  C_20
REMARK    3  A    between atoms: C_21  and  C_22
REMARK                            x       y       z     vdW  Elec       q    Type
REMARK                         _______ _______ _______ _____ _____    ______ ____
ROOT
ATOM      1  O   UNL     1     -64.404 -46.166 -56.156  0.00  0.00    +0.000 OA
ATOM      2  C   UNL     1     -66.484 -47.455 -55.864  0.00  0.00    +0.000 A 
ATOM      3  C   UNL     1     -66.543 -47.591 -57.340  0.00  0.00    +0.000 A 
ATOM      4  C   UNL     1     -65.186 -46.990 -55.260  0.00  0.00    +0.000 C 
ATOM      5  C   UNL     1     -67.637 -48.017 -55.210  0.00  0.00    +0.000 A 
ATOM      6  C   UNL     1     -65.415 -47.157 -58.161  0.00  0.00    +0.000 A 
ATOM      7  C   UNL     1     -68.833 -48.654 -55.941  0.00  0.00    +0.000 A 
ATOM      8  C   UNL     1     -67.767 -48.212 -57.799  0.00  0.00    +0.000 A 
ATOM      9  C   UNL     1     -68.889 -48.741 -57.373  0.00  0.00    +0.000 A 
ATOM     10  C   UNL     1     -64.395 -46.459 -57.497  0.00  0.00    +0.000 A 
ATOM     11  C   UNL     1     -65.486 -46.108 -54.018  0.00  0.00    +0.000 C 
ATOM     12  C   UNL     1     -64.332 -48.226 -54.852  0.00  0.00    +0.000 C 
ATOM     13  C   UNL     1     -65.290 -47.367 -59.540  0.00  0.00    +0.000 A 
ATOM     14  C   UNL     1     -63.302 -45.957 -58.205  0.00  0.00    +0.000 A 
ATOM     15  C   UNL     1     -70.174 -48.485 -58.094  0.00  0.00    +0.000 C 
ATOM     16  C   UNL     1     -63.195 -46.174 -59.574  0.00  0.00    +0.000 A 
ATOM     17  C   UNL     1     -64.186 -46.882 -60.244  0.00  0.00    +0.000 A 
ENDROOT
BRANCH  13  18
ATOM     18  O   UNL     1     -66.246 -48.061 -60.226  0.00  0.00    +0.000 OA
ATOM     19  H   UNL     1     -67.122 -47.857 -59.852  0.00  0.00    +0.000 HD
ENDBRANCH  13  18
BRANCH  16  20
ATOM     20  C   UNL     1     -62.064 -45.683 -60.287  0.00  0.00    +0.000 C 
ATOM     21  C   UNL     1     -60.850 -45.141 -61.049  0.00  0.00    +0.000 C 
BRANCH  21  22
ATOM     22  C   UNL     1     -59.637 -44.591 -61.804  0.00  0.00    +0.000 C 
ATOM     23  C   UNL     1     -58.422 -44.046 -62.562  0.00  0.00    +0.000 C 
ATOM     24  C   UNL     1     -57.208 -43.501 -63.321  0.00  0.00    +0.000 C 
ENDBRANCH  21  22
ENDBRANCH  16  20
TORSDOF 3
ENDMDL
MODEL 3
REMARK VINA RESULT:      -5.4      2.104      7.846
REMARK  Name = Dronabinol.pdbqt.pdb
REMARK  3 active torsions:
REMARK  status: ('A' for Active; 'I' for Inactive)
REMARK    1  A    between atoms: C_13  and  O_18
REMARK    2  A    between atoms: C_16  and  C_20
REMARK    3  A    between atoms: C_21  and  C_22
REMARK                            x       y       z     vdW  Elec       q    Type
REMARK                         _______ _______ _______ _____ _____    ______ ____
ROOT
ATOM      1  O   UNL     1     -52.955 -57.586 -65.595  0.00  0.00    +0.000 OA
ATOM      2  C   UNL     1     -51.730 -56.328 -67.324  0.00  0.00    +0.000 A 
ATOM      3  C   UNL     1     -52.808 -56.693 -68.276  0.00  0.00    +0.000 A 
ATOM      4  C   UNL     1     -52.000 -56.531 -65.858  0.00  0.00    +0.000 C 
ATOM      5  C   UNL     1     -50.652 -55.612 -67.956  0.00  0.00    +0.000 A 
ATOM      6  C   UNL     1     -54.023 -57.345 -67.792  0.00  0.00    +0.000 A 
ATOM      7  C   UNL     1     -50.582 -55.287 -69.460  0.00  0.00    +0.000 A 
ATOM      8  C   UNL     1     -52.516 -56.293 -69.636  0.00  0.00    +0.000 A 
ATOM      9  C   UNL     1     -51.618 -55.683 -70.371  0.00  0.00    +0.000 A 
ATOM     10  C   UNL     1     -54.016 -57.755 -66.450  0.00  0.00    +0.000 A 
ATOM     11  C   UNL     1     -50.686 -56.958 -65.149  0.00  0.00    +0.000 C 
ATOM     12  C   UNL     1     -52.541 -55.208 -65.241  0.00  0.00    +0.000 C 
ATOM     13  C   UNL     1     -55.164 -57.602 -68.562  0.00  0.00    +0.000 A 
ATOM     14  C   UNL     1     -55.109 -58.434 -65.910  0.00  0.00    +0.000 A 
ATOM     15  C   UNL     1     -51.268 -56.199 -71.731  0.00  0.00    +0.000 C 
ATOM     16  C   UNL     1     -56.234 -58.681 -66.690  0.00  0.00    +0.000 A 
ATOM     17  C   UNL     1     -56.266 -58.264 -68.015  0.00  0.00    +0.000 A 
ENDROOT
BRANCH  13  18
ATOM     18  O   UNL     1     -55.227 -57.201 -69.867  0.00  0.00    +0.000 OA
ATOM     19  H   UNL     1     -56.009 -57.600 -70.288  0.00  0.00    +0.000 HD
ENDBRANCH  13  18
BRANCH  16  20
ATOM     20  C   UNL     1     -57.357 -59.351 -66.127  0.00  0.00    +0.000 C 
ATOM     21  C   UNL     1     -58.572 -60.060 -65.518  0.00  0.00    +0.000 C 
BRANCH  21  22
ATOM     22  C   UNL     1     -59.791 -60.760 -64.911  0.00  0.00    +0.000 C 
ATOM     23  C   UNL     1     -61.015 -61.457 -64.307  0.00  0.00    +0.000 C 
ATOM     24  C   UNL     1     -62.238 -62.156 -63.705  0.00  0.00    +0.000 C 
ENDBRANCH  21  22
ENDBRANCH  16  20
TORSDOF 3
ENDMDL
MODEL 4
REMARK VINA RESULT:      -5.4     11.714     13.889
REMARK  Name = Dronabinol.pdbqt.pdb
REMARK  3 active torsions:
REMARK  status: ('A' for Active; 'I' for Inactive)
REMARK    1  A    between atoms: C_13  and  O_18
REMARK    2  A    between atoms: C_16  and  C_20
REMARK    3  A    between atoms: C_21  and  C_22
REMARK                            x       y       z     vdW  Elec       q    Type
REMARK                         _______ _______ _______ _____ _____    ______ ____
ROOT
ATOM      1  O   UNL     1     -68.637 -61.009 -72.735  0.00  0.00    +0.000 OA
ATOM      2  C   UNL     1     -68.379 -60.784 -70.294  0.00  0.00    +0.000 A 
ATOM      3  C   UNL     1     -66.920 -60.973 -70.486  0.00  0.00    +0.000 A 
ATOM      4  C   UNL     1     -69.206 -60.480 -71.514  0.00  0.00    +0.000 C 
ATOM      5  C   UNL     1     -68.748 -60.698 -68.906  0.00  0.00    +0.000 A 
ATOM      6  C   UNL     1     -66.354 -60.990 -71.833  0.00  0.00    +0.000 A 
ATOM      7  C   UNL     1     -67.762 -60.830 -67.729  0.00  0.00    +0.000 A 
ATOM      8  C   UNL     1     -66.198 -61.079 -69.236  0.00  0.00    +0.000 A 
ATOM      9  C   UNL     1     -66.360 -61.052 -67.935  0.00  0.00    +0.000 A 
ATOM     10  C   UNL     1     -67.273 -61.005 -72.893  0.00  0.00    +0.000 A 
ATOM     11  C   UNL     1     -70.600 -61.148 -71.367  0.00  0.00    +0.000 C 
ATOM     12  C   UNL     1     -69.359 -58.938 -71.667  0.00  0.00    +0.000 C 
ATOM     13  C   UNL     1     -64.987 -61.012 -72.136  0.00  0.00    +0.000 A 
ATOM     14  C   UNL     1     -66.831 -61.076 -74.215  0.00  0.00    +0.000 A 
ATOM     15  C   UNL     1     -65.609 -61.999 -67.054  0.00  0.00    +0.000 C 
ATOM     16  C   UNL     1     -65.469 -61.098 -74.497  0.00  0.00    +0.000 A 
ATOM     17  C   UNL     1     -64.545 -61.063 -73.460  0.00  0.00    +0.000 A 
ENDROOT
BRANCH  13  18
ATOM     18  O   UNL     1     -64.054 -60.976 -71.139  0.00  0.00    +0.000 OA
ATOM     19  H   UNL     1     -64.457 -60.602 -70.335  0.00  0.00    +0.000 HD
ENDBRANCH  13  18
BRANCH  16  20
ATOM     20  C   UNL     1     -65.023 -61.144 -75.848  0.00  0.00    +0.000 C 
ATOM     21  C   UNL     1     -64.535 -61.204 -77.300  0.00  0.00    +0.000 C 
BRANCH  21  22
ATOM     22  C   UNL     1     -64.044 -61.275 -78.749  0.00  0.00    +0.000 C 
ATOM     23  C   UNL     1     -63.557 -61.348 -80.200  0.00  0.00    +0.000 C 
ATOM     24  C   UNL     1     -63.072 -61.421 -81.651  0.00  0.00    +0.000 C 
ENDBRANCH  21  22
ENDBRANCH  16  20
TORSDOF 3
ENDMDL
MODEL 5
REMARK VINA RESULT:      -5.4     40.375     44.304
REMARK  Name = Dronabinol.pdbqt.pdb
REMARK  3 active torsions:
REMARK  status: ('A' for Active; 'I' for Inactive)
REMARK    1  A    between atoms: C_13  and  O_18
REMARK    2  A    between atoms: C_16  and  C_20
REMARK    3  A    between atoms: C_21  and  C_22
REMARK                            x       y       z     vdW  Elec       q    Type
REMARK                         _______ _______ _______ _____ _____    ______ ____
ROOT
ATOM      1  O   UNL     1     -61.461 -51.153 -23.948  0.00  0.00    +0.000 OA
ATOM      2  C   UNL     1     -62.275 -50.617 -21.684  0.00  0.00    +0.000 A 
ATOM      3  C   UNL     1     -62.452 -52.073 -21.462  0.00  0.00    +0.000 A 
ATOM      4  C   UNL     1     -61.449 -50.190 -22.867  0.00  0.00    +0.000 C 
ATOM      5  C   UNL     1     -62.747 -49.827 -20.577  0.00  0.00    +0.000 A 
ATOM      6  C   UNL     1     -61.946 -53.031 -22.442  0.00  0.00    +0.000 A 
ATOM      7  C   UNL     1     -63.408 -50.403 -19.311  0.00  0.00    +0.000 A 
ATOM      8  C   UNL     1     -63.105 -52.374 -20.206  0.00  0.00    +0.000 A 
ATOM      9  C   UNL     1     -63.606 -51.813 -19.132  0.00  0.00    +0.000 A 
ATOM     10  C   UNL     1     -61.470 -52.493 -23.648  0.00  0.00    +0.000 A 
ATOM     11  C   UNL     1     -62.037 -48.879 -23.457  0.00  0.00    +0.000 C 
ATOM     12  C   UNL     1     -59.975 -49.967 -22.419  0.00  0.00    +0.000 C 
ATOM     13  C   UNL     1     -61.920 -54.421 -22.277  0.00  0.00    +0.000 A 
ATOM     14  C   UNL     1     -61.016 -53.330 -24.669  0.00  0.00    +0.000 A 
ATOM     15  C   UNL     1     -64.873 -52.325 -18.525  0.00  0.00    +0.000 C 
ATOM     16  C   UNL     1     -60.999 -54.709 -24.487  0.00  0.00    +0.000 A 
ATOM     17  C   UNL     1     -61.447 -55.257 -23.291  0.00  0.00    +0.000 A 
ENDROOT
BRANCH  13  18
ATOM     18  O   UNL     1     -62.352 -54.990 -21.112  0.00  0.00    +0.000 OA
ATOM     19  H   UNL     1     -62.443 -54.298 -20.432  0.00  0.00    +0.000 HD
ENDBRANCH  13  18
BRANCH  16  20
ATOM     20  C   UNL     1     -60.510 -55.557 -25.520  0.00  0.00    +0.000 C 
ATOM     21  C   UNL     1     -59.987 -56.460 -26.643  0.00  0.00    +0.000 C 
BRANCH  21  22
ATOM     22  C   UNL     1     -59.465 -57.355 -27.771  0.00  0.00    +0.000 C 
ATOM     23  C   UNL     1     -58.939 -58.249 -28.898  0.00  0.00    +0.000 C 
ATOM     24  C   UNL     1     -58.411 -59.146 -30.022  0.00  0.00    +0.000 C 
ENDBRANCH  21  22
ENDBRANCH  16  20
TORSDOF 3
ENDMDL
MODEL 6
REMARK VINA RESULT:      -5.3     11.266     12.204
REMARK  Name = Dronabinol.pdbqt.pdb
REMARK  3 active torsions:
REMARK  status: ('A' for Active; 'I' for Inactive)
REMARK    1  A    between atoms: C_13  and  O_18
REMARK    2  A    between atoms: C_16  and  C_20
REMARK    3  A    between atoms: C_21  and  C_22
REMARK                            x       y       z     vdW  Elec       q    Type
REMARK                         _______ _______ _______ _____ _____    ______ ____
ROOT
ATOM      1  O   UNL     1     -63.545 -63.470 -70.407  0.00  0.00    +0.000 OA
ATOM      2  C   UNL     1     -64.571 -63.351 -68.168  0.00  0.00    +0.000 A 
ATOM      3  C   UNL     1     -65.366 -62.197 -68.654  0.00  0.00    +0.000 A 
ATOM      4  C   UNL     1     -63.874 -64.197 -69.200  0.00  0.00    +0.000 C 
ATOM      5  C   UNL     1     -64.778 -63.617 -66.769  0.00  0.00    +0.000 A 
ATOM      6  C   UNL     1     -65.350 -61.839 -70.070  0.00  0.00    +0.000 A 
ATOM      7  C   UNL     1     -65.686 -62.783 -65.845  0.00  0.00    +0.000 A 
ATOM      8  C   UNL     1     -66.135 -61.564 -67.604  0.00  0.00    +0.000 A 
ATOM      9  C   UNL     1     -66.417 -61.646 -66.326  0.00  0.00    +0.000 A 
ATOM     10  C   UNL     1     -64.420 -62.518 -70.872  0.00  0.00    +0.000 A 
ATOM     11  C   UNL     1     -62.523 -64.700 -68.622  0.00  0.00    +0.000 C 
ATOM     12  C   UNL     1     -64.782 -65.404 -69.581  0.00  0.00    +0.000 C 
ATOM     13  C   UNL     1     -66.166 -60.872 -70.670  0.00  0.00    +0.000 A 
ATOM     14  C   UNL     1     -64.290 -62.208 -72.227  0.00  0.00    +0.000 A 
ATOM     15  C   UNL     1     -66.526 -60.411 -65.488  0.00  0.00    +0.000 C 
ATOM     16  C   UNL     1     -65.109 -61.244 -72.805  0.00  0.00    +0.000 A 
ATOM     17  C   UNL     1     -66.049 -60.576 -72.030  0.00  0.00    +0.000 A 
ENDROOT
BRANCH  13  18
ATOM     18  O   UNL     1     -67.102 -60.201 -69.935  0.00  0.00    +0.000 OA
ATOM     19  H   UNL     1     -66.694 -59.407 -69.544  0.00  0.00    +0.000 HD
ENDBRANCH  13  18
BRANCH  16  20
ATOM     20  C   UNL     1     -64.991 -60.950 -74.193  0.00  0.00    +0.000 C 
ATOM     21  C   UNL     1     -64.863 -60.621 -75.685  0.00  0.00    +0.000 C 
BRANCH  21  22
ATOM     22  C   UNL     1     -64.731 -60.282 -77.172  0.00  0.00    +0.000 C 
ATOM     23  C   UNL     1     -64.595 -59.941 -78.660  0.00  0.00    +0.000 C 
ATOM     24  C   UNL     1     -64.456 -59.601 -80.147  0.00  0.00    +0.000 C 
ENDBRANCH  21  22
ENDBRANCH  16  20
TORSDOF 3
ENDMDL
MODEL 7
REMARK VINA RESULT:      -5.3     39.153     43.418
REMARK  Name = Dronabinol.pdbqt.pdb
REMARK  3 active torsions:
REMARK  status: ('A' for Active; 'I' for Inactive)
REMARK    1  A    between atoms: C_13  and  O_18
REMARK    2  A    between atoms: C_16  and  C_20
REMARK    3  A    between atoms: C_21  and  C_22
REMARK                            x       y       z     vdW  Elec       q    Type
REMARK                         _______ _______ _______ _____ _____    ______ ____
ROOT
ATOM      1  O   UNL     1     -71.889 -58.342 -25.526  0.00  0.00    +0.000 OA
ATOM      2  C   UNL     1     -73.788 -57.472 -24.218  0.00  0.00    +0.000 A 
ATOM      3  C   UNL     1     -73.991 -56.462 -25.286  0.00  0.00    +0.000 A 
ATOM      4  C   UNL     1     -72.894 -58.641 -24.529  0.00  0.00    +0.000 C 
ATOM      5  C   UNL     1     -74.678 -57.284 -23.102  0.00  0.00    +0.000 A 
ATOM      6  C   UNL     1     -73.237 -56.553 -26.534  0.00  0.00    +0.000 A 
ATOM      7  C   UNL     1     -75.706 -56.142 -22.986  0.00  0.00    +0.000 A 
ATOM      8  C   UNL     1     -75.002 -55.483 -24.949  0.00  0.00    +0.000 A 
ATOM      9  C   UNL     1     -75.859 -55.152 -24.013  0.00  0.00    +0.000 A 
ATOM     10  C   UNL     1     -72.213 -57.512 -26.572  0.00  0.00    +0.000 A 
ATOM     11  C   UNL     1     -72.116 -59.047 -23.247  0.00  0.00    +0.000 C 
ATOM     12  C   UNL     1     -73.756 -59.834 -25.037  0.00  0.00    +0.000 C 
ATOM     13  C   UNL     1     -73.444 -55.755 -27.665  0.00  0.00    +0.000 A 
ATOM     14  C   UNL     1     -71.401 -57.639 -27.701  0.00  0.00    +0.000 A 
ATOM     15  C   UNL     1     -76.075 -53.717 -23.651  0.00  0.00    +0.000 C 
ATOM     16  C   UNL     1     -71.622 -56.837 -28.815  0.00  0.00    +0.000 A 
ATOM     17  C   UNL     1     -72.644 -55.896 -28.801  0.00  0.00    +0.000 A 
ENDROOT
BRANCH  13  18
ATOM     18  O   UNL     1     -74.443 -54.823 -27.684  0.00  0.00    +0.000 OA
ATOM     19  H   UNL     1     -74.356 -54.274 -28.484  0.00  0.00    +0.000 HD
ENDBRANCH  13  18
BRANCH  16  20
ATOM     20  C   UNL     1     -70.808 -56.989 -29.973  0.00  0.00    +0.000 C 
ATOM     21  C   UNL     1     -69.924 -57.141 -31.216  0.00  0.00    +0.000 C 
BRANCH  21  22
ATOM     22  C   UNL     1     -69.033 -57.287 -32.453  0.00  0.00    +0.000 C 
ATOM     23  C   UNL     1     -68.138 -57.431 -33.689  0.00  0.00    +0.000 C 
ATOM     24  C   UNL     1     -67.242 -57.575 -34.922  0.00  0.00    +0.000 C 
ENDBRANCH  21  22
ENDBRANCH  16  20
TORSDOF 3
ENDMDL
MODEL 8
REMARK VINA RESULT:      -5.2     29.655     33.821
REMARK  Name = Dronabinol.pdbqt.pdb
REMARK  3 active torsions:
REMARK  status: ('A' for Active; 'I' for Inactive)
REMARK    1  A    between atoms: C_13  and  O_18
REMARK    2  A    between atoms: C_16  and  C_20
REMARK    3  A    between atoms: C_21  and  C_22
REMARK                            x       y       z     vdW  Elec       q    Type
REMARK                         _______ _______ _______ _____ _____    ______ ____
ROOT
ATOM      1  O   UNL     1     -67.664 -57.860 -34.561  0.00  0.00    +0.000 OA
ATOM      2  C   UNL     1     -69.427 -57.331 -32.922  0.00  0.00    +0.000 A 
ATOM      3  C   UNL     1     -70.095 -56.535 -33.980  0.00  0.00    +0.000 A 
ATOM      4  C   UNL     1     -68.336 -58.276 -33.349  0.00  0.00    +0.000 C 
ATOM      5  C   UNL     1     -70.096 -57.236 -31.651  0.00  0.00    +0.000 A 
ATOM      6  C   UNL     1     -69.606 -56.586 -35.355  0.00  0.00    +0.000 A 
ATOM      7  C   UNL     1     -71.344 -56.374 -31.382  0.00  0.00    +0.000 A 
ATOM      8  C   UNL     1     -71.242 -55.799 -33.490  0.00  0.00    +0.000 A 
ATOM      9  C   UNL     1     -71.953 -55.579 -32.411  0.00  0.00    +0.000 A 
ATOM     10  C   UNL     1     -68.394 -57.264 -35.559  0.00  0.00    +0.000 A 
ATOM     11  C   UNL     1     -67.241 -58.326 -32.248  0.00  0.00    +0.000 C 
ATOM     12  C   UNL     1     -68.937 -59.694 -33.577  0.00  0.00    +0.000 C 
ATOM     13  C   UNL     1     -70.236 -56.001 -36.461  0.00  0.00    +0.000 A 
ATOM     14  C   UNL     1     -67.817 -57.321 -36.829  0.00  0.00    +0.000 A 
ATOM     15  C   UNL     1     -72.463 -54.207 -32.101  0.00  0.00    +0.000 C 
ATOM     16  C   UNL     1     -68.457 -56.734 -37.915  0.00  0.00    +0.000 A 
ATOM     17  C   UNL     1     -69.668 -56.076 -37.735  0.00  0.00    +0.000 A 
ENDROOT
BRANCH  13  18
ATOM     18  O   UNL     1     -71.428 -55.350 -36.317  0.00  0.00    +0.000 OA
ATOM     19  H   UNL     1     -72.087 -55.749 -36.913  0.00  0.00    +0.000 HD
ENDBRANCH  13  18
BRANCH  16  20
ATOM     20  C   UNL     1     -67.878 -56.818 -39.213  0.00  0.00    +0.000 C 
ATOM     21  C   UNL     1     -67.241 -56.909 -40.604  0.00  0.00    +0.000 C 
BRANCH  21  22
ATOM     22  C   UNL     1     -66.596 -57.004 -41.990  0.00  0.00    +0.000 C 
ATOM     23  C   UNL     1     -65.954 -57.102 -43.377  0.00  0.00    +0.000 C 
ATOM     24  C   UNL     1     -65.314 -57.200 -44.766  0.00  0.00    +0.000 C 
ENDBRANCH  21  22
ENDBRANCH  16  20
TORSDOF 3
ENDMDL
MODEL 9
REMARK VINA RESULT:      -5.1     18.565     21.890
REMARK  Name = Dronabinol.pdbqt.pdb
REMARK  3 active torsions:
REMARK  status: ('A' for Active; 'I' for Inactive)
REMARK    1  A    between atoms: C_13  and  O_18
REMARK    2  A    between atoms: C_16  and  C_20
REMARK    3  A    between atoms: C_21  and  C_22
REMARK                            x       y       z     vdW  Elec       q    Type
REMARK                         _______ _______ _______ _____ _____    ______ ____
ROOT
ATOM      1  O   UNL     1     -64.810 -48.197 -51.699  0.00  0.00    +0.000 OA
ATOM      2  C   UNL     1     -64.965 -47.762 -54.120  0.00  0.00    +0.000 A 
ATOM      3  C   UNL     1     -64.103 -46.575 -53.906  0.00  0.00    +0.000 A 
ATOM      4  C   UNL     1     -65.046 -48.771 -53.006  0.00  0.00    +0.000 C 
ATOM      5  C   UNL     1     -65.425 -47.876 -55.479  0.00  0.00    +0.000 A 
ATOM      6  C   UNL     1     -63.472 -46.350 -52.607  0.00  0.00    +0.000 A 
ATOM      7  C   UNL     1     -65.107 -46.865 -56.597  0.00  0.00    +0.000 A 
ATOM      8  C   UNL     1     -63.954 -45.767 -55.098  0.00  0.00    +0.000 A 
ATOM      9  C   UNL     1     -64.302 -45.701 -56.360  0.00  0.00    +0.000 A 
ATOM     10  C   UNL     1     -63.876 -47.200 -51.566  0.00  0.00    +0.000 A 
ATOM     11  C   UNL     1     -66.479 -49.369 -52.958  0.00  0.00    +0.000 C 
ATOM     12  C   UNL     1     -63.999 -49.898 -53.248  0.00  0.00    +0.000 C 
ATOM     13  C   UNL     1     -62.526 -45.356 -52.328  0.00  0.00    +0.000 A 
ATOM     14  C   UNL     1     -63.371 -47.030 -50.276  0.00  0.00    +0.000 A 
ATOM     15  C   UNL     1     -64.670 -44.391 -56.982  0.00  0.00    +0.000 C 
ATOM     16  C   UNL     1     -62.433 -46.037 -50.016  0.00  0.00    +0.000 A 
ATOM     17  C   UNL     1     -62.006 -45.200 -51.041  0.00  0.00    +0.000 A 
ENDROOT
BRANCH  13  18
ATOM     18  O   UNL     1     -62.085 -44.520 -53.314  0.00  0.00    +0.000 OA
ATOM     19  H   UNL     1     -61.120 -44.411 -53.235  0.00  0.00    +0.000 HD
ENDBRANCH  13  18
BRANCH  16  20
ATOM     20  C   UNL     1     -61.901 -45.885 -48.704  0.00  0.00    +0.000 C 
ATOM     21  C   UNL     1     -61.317 -45.728 -47.296  0.00  0.00    +0.000 C 
BRANCH  21  22
ATOM     22  C   UNL     1     -60.723 -45.572 -45.893  0.00  0.00    +0.000 C 
ATOM     23  C   UNL     1     -60.127 -45.421 -44.490  0.00  0.00    +0.000 C 
ATOM     24  C   UNL     1     -59.530 -45.271 -43.087  0.00  0.00    +0.000 C 
ENDBRANCH  21  22
ENDBRANCH  16  20
TORSDOF 3
ENDMDL
