MODEL 1
REMARK VINA RESULT:      -6.2      0.000      0.000
REMARK  Name = Ellipticine.pdbqt.pdb
REMARK  0 active torsions:
REMARK  status: ('A' for Active; 'I' for Inactive)
REMARK                            x       y       z     vdW  Elec       q    Type
REMARK                         _______ _______ _______ _____ _____    ______ ____
ROOT
ATOM      1  N   UNL     1     -69.283 -56.563 -30.995  0.00  0.00    +0.000 N 
ATOM      2  N   UNL     1     -69.041 -57.647 -37.319  0.00  0.00    +0.000 NA
ATOM      3  C   UNL     1     -70.287 -55.964 -32.905  0.00  0.00    +0.000 A 
ATOM      4  C   UNL     1     -69.275 -56.759 -32.360  0.00  0.00    +0.000 A 
ATOM      5  C   UNL     1     -70.482 -55.990 -34.310  0.00  0.00    +0.000 A 
ATOM      6  C   UNL     1     -70.909 -55.277 -31.804  0.00  0.00    +0.000 A 
ATOM      7  C   UNL     1     -68.445 -57.580 -33.140  0.00  0.00    +0.000 A 
ATOM      8  C   UNL     1     -68.641 -57.605 -34.534  0.00  0.00    +0.000 A 
ATOM      9  C   UNL     1     -69.656 -56.812 -35.112  0.00  0.00    +0.000 A 
ATOM     10  C   UNL     1     -70.261 -55.672 -30.635  0.00  0.00    +0.000 A 
ATOM     11  C   UNL     1     -71.570 -55.142 -34.934  0.00  0.00    +0.000 C 
ATOM     12  C   UNL     1     -71.967 -54.352 -31.698  0.00  0.00    +0.000 A 
ATOM     13  C   UNL     1     -67.382 -58.398 -32.446  0.00  0.00    +0.000 C 
ATOM     14  C   UNL     1     -70.611 -55.195 -29.367  0.00  0.00    +0.000 A 
ATOM     15  C   UNL     1     -67.850 -58.401 -35.377  0.00  0.00    +0.000 A 
ATOM     16  C   UNL     1     -69.795 -56.884 -36.498  0.00  0.00    +0.000 A 
ATOM     17  C   UNL     1     -72.333 -53.863 -30.442  0.00  0.00    +0.000 A 
ATOM     18  C   UNL     1     -71.664 -54.281 -29.298  0.00  0.00    +0.000 A 
ATOM     19  C   UNL     1     -68.083 -58.390 -36.739  0.00  0.00    +0.000 A 
ATOM     20  H   UNL     1     -68.646 -57.022 -30.353  0.00  0.00    +0.000 HD
ENDROOT
TORSDOF 0
ENDMDL
MODEL 2
REMARK VINA RESULT:      -6.0     31.805     36.182
REMARK  Name = Ellipticine.pdbqt.pdb
REMARK  0 active torsions:
REMARK  status: ('A' for Active; 'I' for Inactive)
REMARK                            x       y       z     vdW  Elec       q    Type
REMARK                         _______ _______ _______ _____ _____    ______ ____
ROOT
ATOM      1  N   UNL     1     -56.442 -58.939 -67.909  0.00  0.00    +0.000 N 
ATOM      2  N   UNL     1     -56.299 -58.711 -61.493  0.00  0.00    +0.000 NA
ATOM      3  C   UNL     1     -55.256 -58.064 -66.222  0.00  0.00    +0.000 A 
ATOM      4  C   UNL     1     -56.365 -58.857 -66.534  0.00  0.00    +0.000 A 
ATOM      5  C   UNL     1     -54.960 -57.827 -64.855  0.00  0.00    +0.000 A 
ATOM      6  C   UNL     1     -54.667 -57.670 -67.475  0.00  0.00    +0.000 A 
ATOM      7  C   UNL     1     -57.195 -59.427 -65.556  0.00  0.00    +0.000 A 
ATOM      8  C   UNL     1     -56.899 -59.190 -64.200  0.00  0.00    +0.000 A 
ATOM      9  C   UNL     1     -55.786 -58.394 -63.856  0.00  0.00    +0.000 A 
ATOM     10  C   UNL     1     -55.427 -58.231 -68.499  0.00  0.00    +0.000 A 
ATOM     11  C   UNL     1     -53.768 -56.973 -64.482  0.00  0.00    +0.000 C 
ATOM     12  C   UNL     1     -53.551 -56.885 -67.828  0.00  0.00    +0.000 A 
ATOM     13  C   UNL     1     -58.367 -60.268 -66.006  0.00  0.00    +0.000 C 
ATOM     14  C   UNL     1     -55.136 -58.051 -69.855  0.00  0.00    +0.000 A 
ATOM     15  C   UNL     1     -57.685 -59.728 -63.169  0.00  0.00    +0.000 A 
ATOM     16  C   UNL     1     -55.551 -58.200 -62.495  0.00  0.00    +0.000 A 
ATOM     17  C   UNL     1     -53.242 -56.693 -69.177  0.00  0.00    +0.000 A 
ATOM     18  C   UNL     1     -54.024 -57.268 -70.171  0.00  0.00    +0.000 A 
ATOM     19  C   UNL     1     -57.352 -59.466 -61.853  0.00  0.00    +0.000 A 
ATOM     20  H   UNL     1     -57.158 -59.457 -68.406  0.00  0.00    +0.000 HD
ENDROOT
TORSDOF 0
ENDMDL
MODEL 3
REMARK VINA RESULT:      -5.9     24.227     27.432
REMARK  Name = Ellipticine.pdbqt.pdb
REMARK  0 active torsions:
REMARK  status: ('A' for Active; 'I' for Inactive)
REMARK                            x       y       z     vdW  Elec       q    Type
REMARK                         _______ _______ _______ _____ _____    ______ ____
ROOT
ATOM      1  N   UNL     1     -62.555 -45.902 -57.356  0.00  0.00    +0.000 N 
ATOM      2  N   UNL     1     -68.613 -47.421 -55.866  0.00  0.00    +0.000 NA
ATOM      3  C   UNL     1     -64.409 -46.766 -58.268  0.00  0.00    +0.000 A 
ATOM      4  C   UNL     1     -63.864 -46.247 -57.090  0.00  0.00    +0.000 A 
ATOM      5  C   UNL     1     -65.761 -47.196 -58.252  0.00  0.00    +0.000 A 
ATOM      6  C   UNL     1     -63.367 -46.718 -59.260  0.00  0.00    +0.000 A 
ATOM      7  C   UNL     1     -64.593 -46.134 -55.896  0.00  0.00    +0.000 A 
ATOM      8  C   UNL     1     -65.934 -46.562 -55.882  0.00  0.00    +0.000 A 
ATOM      9  C   UNL     1     -66.511 -47.090 -57.057  0.00  0.00    +0.000 A 
ATOM     10  C   UNL     1     -62.232 -46.178 -58.660  0.00  0.00    +0.000 A 
ATOM     11  C   UNL     1     -66.384 -47.763 -59.509  0.00  0.00    +0.000 C 
ATOM     12  C   UNL     1     -63.290 -47.089 -60.617  0.00  0.00    +0.000 A 
ATOM     13  C   UNL     1     -63.903 -45.558 -54.681  0.00  0.00    +0.000 C 
ATOM     14  C   UNL     1     -61.025 -45.986 -59.340  0.00  0.00    +0.000 A 
ATOM     15  C   UNL     1     -66.723 -46.480 -54.725  0.00  0.00    +0.000 A 
ATOM     16  C   UNL     1     -67.843 -47.495 -56.973  0.00  0.00    +0.000 A 
ATOM     17  C   UNL     1     -62.094 -46.906 -61.315  0.00  0.00    +0.000 A 
ATOM     18  C   UNL     1     -60.982 -46.364 -60.683  0.00  0.00    +0.000 A 
ATOM     19  C   UNL     1     -68.035 -46.914 -54.763  0.00  0.00    +0.000 A 
ATOM     20  H   UNL     1     -61.924 -45.500 -56.671  0.00  0.00    +0.000 HD
ENDROOT
TORSDOF 0
ENDMDL
MODEL 4
REMARK VINA RESULT:      -5.9      7.912     10.833
REMARK  Name = Ellipticine.pdbqt.pdb
REMARK  0 active torsions:
REMARK  status: ('A' for Active; 'I' for Inactive)
REMARK                            x       y       z     vdW  Elec       q    Type
REMARK                         _______ _______ _______ _____ _____    ______ ____
ROOT
ATOM      1  N   UNL     1     -72.872 -56.853 -21.214  0.00  0.00    +0.000 N 
ATOM      2  N   UNL     1     -74.403 -56.831 -27.450  0.00  0.00    +0.000 NA
ATOM      3  C   UNL     1     -73.919 -55.600 -22.747  0.00  0.00    +0.000 A 
ATOM      4  C   UNL     1     -73.226 -56.797 -22.546  0.00  0.00    +0.000 A 
ATOM      5  C   UNL     1     -74.395 -55.307 -24.051  0.00  0.00    +0.000 A 
ATOM      6  C   UNL     1     -73.967 -54.934 -21.472  0.00  0.00    +0.000 A 
ATOM      7  C   UNL     1     -72.981 -57.720 -23.576  0.00  0.00    +0.000 A 
ATOM      8  C   UNL     1     -73.453 -57.427 -24.869  0.00  0.00    +0.000 A 
ATOM      9  C   UNL     1     -74.157 -56.225 -25.101  0.00  0.00    +0.000 A 
ATOM     10  C   UNL     1     -73.308 -55.739 -20.546  0.00  0.00    +0.000 A 
ATOM     11  C   UNL     1     -75.149 -54.019 -24.304  0.00  0.00    +0.000 C 
ATOM     12  C   UNL     1     -74.514 -53.715 -21.024  0.00  0.00    +0.000 A 
ATOM     13  C   UNL     1     -72.221 -58.983 -23.246  0.00  0.00    +0.000 C 
ATOM     14  C   UNL     1     -73.165 -55.395 -19.197  0.00  0.00    +0.000 A 
ATOM     15  C   UNL     1     -73.245 -58.301 -25.947  0.00  0.00    +0.000 A 
ATOM     16  C   UNL     1     -74.596 -55.998 -26.405  0.00  0.00    +0.000 A 
ATOM     17  C   UNL     1     -74.383 -53.351 -19.682  0.00  0.00    +0.000 A 
ATOM     18  C   UNL     1     -73.719 -54.180 -18.786  0.00  0.00    +0.000 A 
ATOM     19  C   UNL     1     -73.730 -57.967 -27.198  0.00  0.00    +0.000 A 
ATOM     20  H   UNL     1     -72.357 -57.621 -20.797  0.00  0.00    +0.000 HD
ENDROOT
TORSDOF 0
ENDMDL
MODEL 5
REMARK VINA RESULT:      -5.8      1.233      2.844
REMARK  Name = Ellipticine.pdbqt.pdb
REMARK  0 active torsions:
REMARK  status: ('A' for Active; 'I' for Inactive)
REMARK                            x       y       z     vdW  Elec       q    Type
REMARK                         _______ _______ _______ _____ _____    ______ ____
ROOT
ATOM      1  N   UNL     1     -71.456 -55.199 -33.453  0.00  0.00    +0.000 N 
ATOM      2  N   UNL     1     -67.197 -59.105 -36.252  0.00  0.00    +0.000 NA
ATOM      3  C   UNL     1     -69.738 -56.547 -32.955  0.00  0.00    +0.000 A 
ATOM      4  C   UNL     1     -70.519 -56.049 -34.002  0.00  0.00    +0.000 A 
ATOM      5  C   UNL     1     -68.692 -57.454 -33.267  0.00  0.00    +0.000 A 
ATOM      6  C   UNL     1     -70.248 -55.958 -31.745  0.00  0.00    +0.000 A 
ATOM      7  C   UNL     1     -70.314 -56.406 -35.344  0.00  0.00    +0.000 A 
ATOM      8  C   UNL     1     -69.275 -57.306 -35.651  0.00  0.00    +0.000 A 
ATOM      9  C   UNL     1     -68.471 -57.825 -34.614  0.00  0.00    +0.000 A 
ATOM     10  C   UNL     1     -71.312 -55.128 -32.091  0.00  0.00    +0.000 A 
ATOM     11  C   UNL     1     -67.827 -58.013 -32.157  0.00  0.00    +0.000 C 
ATOM     12  C   UNL     1     -69.897 -56.057 -30.384  0.00  0.00    +0.000 A 
ATOM     13  C   UNL     1     -71.218 -55.807 -36.396  0.00  0.00    +0.000 C 
ATOM     14  C   UNL     1     -72.045 -54.392 -31.154  0.00  0.00    +0.000 A 
ATOM     15  C   UNL     1     -69.012 -57.707 -36.970  0.00  0.00    +0.000 A 
ATOM     16  C   UNL     1     -67.460 -58.711 -34.988  0.00  0.00    +0.000 A 
ATOM     17  C   UNL     1     -70.615 -55.331 -29.431  0.00  0.00    +0.000 A 
ATOM     18  C   UNL     1     -71.671 -54.513 -29.814  0.00  0.00    +0.000 A 
ATOM     19  C   UNL     1     -67.980 -58.594 -37.218  0.00  0.00    +0.000 A 
ATOM     20  H   UNL     1     -72.153 -54.699 -33.993  0.00  0.00    +0.000 HD
ENDROOT
TORSDOF 0
ENDMDL
MODEL 6
REMARK VINA RESULT:      -5.7      7.874     10.742
REMARK  Name = Ellipticine.pdbqt.pdb
REMARK  0 active torsions:
REMARK  status: ('A' for Active; 'I' for Inactive)
REMARK                            x       y       z     vdW  Elec       q    Type
REMARK                         _______ _______ _______ _____ _____    ______ ____
ROOT
ATOM      1  N   UNL     1     -65.282 -55.712 -41.107  0.00  0.00    +0.000 N 
ATOM      2  N   UNL     1     -64.939 -58.311 -46.969  0.00  0.00    +0.000 NA
ATOM      3  C   UNL     1     -66.525 -56.048 -42.939  0.00  0.00    +0.000 A 
ATOM      4  C   UNL     1     -65.263 -56.255 -42.375  0.00  0.00    +0.000 A 
ATOM      5  C   UNL     1     -66.760 -56.522 -44.256  0.00  0.00    +0.000 A 
ATOM      6  C   UNL     1     -67.309 -55.355 -41.951  0.00  0.00    +0.000 A 
ATOM      7  C   UNL     1     -64.221 -56.908 -43.052  0.00  0.00    +0.000 A 
ATOM      8  C   UNL     1     -64.456 -57.377 -44.358  0.00  0.00    +0.000 A 
ATOM      9  C   UNL     1     -65.722 -57.183 -44.953  0.00  0.00    +0.000 A 
ATOM     10  C   UNL     1     -66.507 -55.163 -40.829  0.00  0.00    +0.000 A 
ATOM     11  C   UNL     1     -68.115 -56.316 -44.898  0.00  0.00    +0.000 C 
ATOM     12  C   UNL     1     -68.632 -54.872 -41.914  0.00  0.00    +0.000 A 
ATOM     13  C   UNL     1     -62.896 -57.077 -42.346  0.00  0.00    +0.000 C 
ATOM     14  C   UNL     1     -66.953 -54.516 -39.671  0.00  0.00    +0.000 A 
ATOM     15  C   UNL     1     -63.463 -58.039 -45.095  0.00  0.00    +0.000 A 
ATOM     16  C   UNL     1     -65.886 -57.672 -46.249  0.00  0.00    +0.000 A 
ATOM     17  C   UNL     1     -69.098 -54.224 -40.768  0.00  0.00    +0.000 A 
ATOM     18  C   UNL     1     -68.269 -54.051 -39.667  0.00  0.00    +0.000 A 
ATOM     19  C   UNL     1     -63.744 -58.481 -46.375  0.00  0.00    +0.000 A 
ATOM     20  H   UNL     1     -64.490 -55.724 -40.474  0.00  0.00    +0.000 HD
ENDROOT
TORSDOF 0
ENDMDL
MODEL 7
REMARK VINA RESULT:      -5.6      1.676      5.421
REMARK  Name = Ellipticine.pdbqt.pdb
REMARK  0 active torsions:
REMARK  status: ('A' for Active; 'I' for Inactive)
REMARK                            x       y       z     vdW  Elec       q    Type
REMARK                         _______ _______ _______ _____ _____    ______ ____
ROOT
ATOM      1  N   UNL     1     -68.888 -56.927 -31.500  0.00  0.00    +0.000 N 
ATOM      2  N   UNL     1     -73.755 -52.867 -32.525  0.00  0.00    +0.000 NA
ATOM      3  C   UNL     1     -70.231 -56.195 -33.136  0.00  0.00    +0.000 A 
ATOM      4  C   UNL     1     -69.933 -56.071 -31.775  0.00  0.00    +0.000 A 
ATOM      5  C   UNL     1     -71.283 -55.407 -33.670  0.00  0.00    +0.000 A 
ATOM      6  C   UNL     1     -69.314 -57.168 -33.670  0.00  0.00    +0.000 A 
ATOM      7  C   UNL     1     -70.628 -55.204 -30.918  0.00  0.00    +0.000 A 
ATOM      8  C   UNL     1     -71.672 -54.423 -31.450  0.00  0.00    +0.000 A 
ATOM      9  C   UNL     1     -71.994 -54.527 -32.820  0.00  0.00    +0.000 A 
ATOM     10  C   UNL     1     -68.497 -57.600 -32.629  0.00  0.00    +0.000 A 
ATOM     11  C   UNL     1     -71.631 -55.516 -35.139  0.00  0.00    +0.000 C 
ATOM     12  C   UNL     1     -69.109 -57.719 -34.951  0.00  0.00    +0.000 A 
ATOM     13  C   UNL     1     -70.223 -55.150 -29.463  0.00  0.00    +0.000 C 
ATOM     14  C   UNL     1     -67.486 -58.553 -32.794  0.00  0.00    +0.000 A 
ATOM     15  C   UNL     1     -72.409 -53.534 -30.653  0.00  0.00    +0.000 A 
ATOM     16  C   UNL     1     -73.038 -53.725 -33.281  0.00  0.00    +0.000 A 
ATOM     17  C   UNL     1     -68.104 -58.671 -35.139  0.00  0.00    +0.000 A 
ATOM     18  C   UNL     1     -67.308 -59.078 -34.076  0.00  0.00    +0.000 A 
ATOM     19  C   UNL     1     -73.425 -52.790 -31.224  0.00  0.00    +0.000 A 
ATOM     20  H   UNL     1     -68.472 -57.037 -30.582  0.00  0.00    +0.000 HD
ENDROOT
TORSDOF 0
ENDMDL
MODEL 8
REMARK VINA RESULT:      -5.5     31.850     36.168
REMARK  Name = Ellipticine.pdbqt.pdb
REMARK  0 active torsions:
REMARK  status: ('A' for Active; 'I' for Inactive)
REMARK                            x       y       z     vdW  Elec       q    Type
REMARK                         _______ _______ _______ _____ _____    ______ ____
ROOT
ATOM      1  N   UNL     1     -53.581 -56.658 -66.463  0.00  0.00    +0.000 N 
ATOM      2  N   UNL     1     -57.424 -59.491 -62.170  0.00  0.00    +0.000 NA
ATOM      3  C   UNL     1     -55.297 -58.092 -66.339  0.00  0.00    +0.000 A 
ATOM      4  C   UNL     1     -54.433 -57.293 -65.584  0.00  0.00    +0.000 A 
ATOM      5  C   UNL     1     -56.279 -58.854 -65.657  0.00  0.00    +0.000 A 
ATOM      6  C   UNL     1     -54.926 -57.909 -67.718  0.00  0.00    +0.000 A 
ATOM      7  C   UNL     1     -54.495 -57.214 -64.184  0.00  0.00    +0.000 A 
ATOM      8  C   UNL     1     -55.471 -57.972 -63.509  0.00  0.00    +0.000 A 
ATOM      9  C   UNL     1     -56.356 -58.787 -64.246  0.00  0.00    +0.000 A 
ATOM     10  C   UNL     1     -53.859 -57.014 -67.757  0.00  0.00    +0.000 A 
ATOM     11  C   UNL     1     -57.231 -59.730 -66.443  0.00  0.00    +0.000 C 
ATOM     12  C   UNL     1     -55.406 -58.427 -68.938  0.00  0.00    +0.000 A 
ATOM     13  C   UNL     1     -53.511 -56.318 -63.468  0.00  0.00    +0.000 C 
ATOM     14  C   UNL     1     -53.244 -56.608 -68.946  0.00  0.00    +0.000 A 
ATOM     15  C   UNL     1     -55.591 -57.942 -62.111  0.00  0.00    +0.000 A 
ATOM     16  C   UNL     1     -57.298 -59.510 -63.514  0.00  0.00    +0.000 A 
ATOM     17  C   UNL     1     -54.806 -58.035 -70.137  0.00  0.00    +0.000 A 
ATOM     18  C   UNL     1     -53.743 -57.140 -70.137  0.00  0.00    +0.000 A 
ATOM     19  C   UNL     1     -56.566 -58.705 -61.496  0.00  0.00    +0.000 A 
ATOM     20  H   UNL     1     -52.849 -56.015 -66.179  0.00  0.00    +0.000 HD
ENDROOT
TORSDOF 0
ENDMDL
MODEL 9
REMARK VINA RESULT:      -5.3      1.158      6.249
REMARK  Name = Ellipticine.pdbqt.pdb
REMARK  0 active torsions:
REMARK  status: ('A' for Active; 'I' for Inactive)
REMARK                            x       y       z     vdW  Elec       q    Type
REMARK                         _______ _______ _______ _____ _____    ______ ____
ROOT
ATOM      1  N   UNL     1     -70.652 -56.088 -35.901  0.00  0.00    +0.000 N 
ATOM      2  N   UNL     1     -70.751 -55.548 -29.504  0.00  0.00    +0.000 NA
ATOM      3  C   UNL     1     -69.591 -56.831 -34.073  0.00  0.00    +0.000 A 
ATOM      4  C   UNL     1     -70.629 -56.009 -34.524  0.00  0.00    +0.000 A 
ATOM      5  C   UNL     1     -69.362 -56.920 -32.676  0.00  0.00    +0.000 A 
ATOM      6  C   UNL     1     -68.988 -57.411 -35.244  0.00  0.00    +0.000 A 
ATOM      7  C   UNL     1     -71.450 -55.270 -33.658  0.00  0.00    +0.000 A 
ATOM      8  C   UNL     1     -71.220 -55.360 -32.272  0.00  0.00    +0.000 A 
ATOM      9  C   UNL     1     -70.179 -56.182 -31.788  0.00  0.00    +0.000 A 
ATOM     10  C   UNL     1     -69.671 -56.929 -36.359  0.00  0.00    +0.000 A 
ATOM     11  C   UNL     1     -68.247 -57.800 -32.153  0.00  0.00    +0.000 C 
ATOM     12  C   UNL     1     -67.920 -58.306 -35.453  0.00  0.00    +0.000 A 
ATOM     13  C   UNL     1     -72.542 -54.414 -34.254  0.00  0.00    +0.000 C 
ATOM     14  C   UNL     1     -69.346 -57.291 -37.670  0.00  0.00    +0.000 A 
ATOM     15  C   UNL     1     -72.000 -54.651 -31.346  0.00  0.00    +0.000 A 
ATOM     16  C   UNL     1     -70.007 -56.225 -30.405  0.00  0.00    +0.000 A 
ATOM     17  C   UNL     1     -67.578 -58.681 -36.755  0.00  0.00    +0.000 A 
ATOM     18  C   UNL     1     -68.282 -58.179 -37.842  0.00  0.00    +0.000 A 
ATOM     19  C   UNL     1     -71.734 -54.774 -29.995  0.00  0.00    +0.000 A 
ATOM     20  H   UNL     1     -71.311 -55.588 -36.487  0.00  0.00    +0.000 HD
ENDROOT
TORSDOF 0
ENDMDL
