MODEL 1
REMARK VINA RESULT:      -6.4      0.000      0.000
REMARK  Name = Enterolactone.pdbqt.pdb
REMARK  2 active torsions:
REMARK  status: ('A' for Active; 'I' for Inactive)
REMARK    1  A    between atoms: C_10  and  O_14
REMARK    2  A    between atoms: C_19  and  O_23
REMARK                            x       y       z     vdW  Elec       q    Type
REMARK                         _______ _______ _______ _____ _____    ______ ____
ROOT
ATOM      1  O   UNL     1     -57.908 -59.823 -63.512  0.00  0.00    +0.000 OA
ATOM      2  O   UNL     1     -58.158 -60.283 -65.784  0.00  0.00    +0.000 OA
ATOM      3  C   UNL     1     -56.014 -58.401 -63.612  0.00  0.00    +0.000 C 
ATOM      4  C   UNL     1     -56.375 -58.822 -64.945  0.00  0.00    +0.000 C 
ATOM      5  C   UNL     1     -57.014 -59.064 -62.899  0.00  0.00    +0.000 C 
ATOM      6  C   UNL     1     -57.582 -59.738 -64.860  0.00  0.00    +0.000 C 
ATOM      7  C   UNL     1     -55.257 -57.263 -63.277  0.00  0.00    +0.000 C 
ATOM      8  C   UNL     1     -54.481 -56.112 -62.956  0.00  0.00    +0.000 C 
ATOM      9  C   UNL     1     -54.543 -54.985 -63.773  0.00  0.00    +0.000 C 
ATOM     10  C   UNL     1     -53.773 -53.871 -63.455  0.00  0.00    +0.000 C 
ATOM     11  C   UNL     1     -52.947 -53.869 -62.336  0.00  0.00    +0.000 C 
ATOM     12  C   UNL     1     -52.890 -54.998 -61.522  0.00  0.00    +0.000 C 
ATOM     13  C   UNL     1     -53.657 -56.120 -61.832  0.00  0.00    +0.000 C 
ATOM     14  C   UNL     1     -55.765 -58.388 -66.143  0.00  0.00    +0.000 C 
ATOM     15  C   UNL     1     -55.147 -57.941 -67.347  0.00  0.00    +0.000 C 
ATOM     16  C   UNL     1     -53.768 -57.756 -67.390  0.00  0.00    +0.000 C 
ATOM     17  C   UNL     1     -53.178 -57.309 -68.568  0.00  0.00    +0.000 C 
ATOM     18  C   UNL     1     -53.946 -57.046 -69.697  0.00  0.00    +0.000 C 
ATOM     19  C   UNL     1     -55.326 -57.234 -69.648  0.00  0.00    +0.000 C 
ATOM     20  C   UNL     1     -55.928 -57.682 -68.472  0.00  0.00    +0.000 C 
ENDROOT
BRANCH  10  21
ATOM     21  O   UNL     1     -53.810 -52.752 -64.234  0.00  0.00    +0.000 OA
ATOM     22  H   UNL     1     -54.732 -52.592 -64.504  0.00  0.00    +0.000 HD
ENDBRANCH  10  21
BRANCH  17  23
ATOM     23  O   UNL     1     -51.830 -57.116 -68.644  0.00  0.00    +0.000 OA
ATOM     24  H   UNL     1     -51.497 -57.570 -69.439  0.00  0.00    +0.000 HD
ENDBRANCH  17  23
TORSDOF 2
ENDMDL
MODEL 2
REMARK VINA RESULT:      -6.2      0.632      5.618
REMARK  Name = Enterolactone.pdbqt.pdb
REMARK  2 active torsions:
REMARK  status: ('A' for Active; 'I' for Inactive)
REMARK    1  A    between atoms: C_10  and  O_14
REMARK    2  A    between atoms: C_19  and  O_23
REMARK                            x       y       z     vdW  Elec       q    Type
REMARK                         _______ _______ _______ _____ _____    ______ ____
ROOT
ATOM      1  O   UNL     1     -57.201 -60.321 -63.582  0.00  0.00    +0.000 OA
ATOM      2  O   UNL     1     -56.520 -59.396 -61.554  0.00  0.00    +0.000 OA
ATOM      3  C   UNL     1     -56.338 -58.682 -65.062  0.00  0.00    +0.000 C 
ATOM      4  C   UNL     1     -56.023 -58.320 -63.701  0.00  0.00    +0.000 C 
ATOM      5  C   UNL     1     -57.015 -59.877 -64.816  0.00  0.00    +0.000 C 
ATOM      6  C   UNL     1     -56.590 -59.374 -62.768  0.00  0.00    +0.000 C 
ATOM      7  C   UNL     1     -55.670 -58.234 -66.217  0.00  0.00    +0.000 C 
ATOM      8  C   UNL     1     -54.987 -57.765 -67.377  0.00  0.00    +0.000 C 
ATOM      9  C   UNL     1     -53.631 -57.457 -67.304  0.00  0.00    +0.000 C 
ATOM     10  C   UNL     1     -52.978 -56.989 -68.441  0.00  0.00    +0.000 C 
ATOM     11  C   UNL     1     -53.661 -56.826 -69.641  0.00  0.00    +0.000 C 
ATOM     12  C   UNL     1     -55.017 -57.135 -69.707  0.00  0.00    +0.000 C 
ATOM     13  C   UNL     1     -55.681 -57.605 -68.575  0.00  0.00    +0.000 C 
ATOM     14  C   UNL     1     -55.241 -57.214 -63.300  0.00  0.00    +0.000 C 
ATOM     15  C   UNL     1     -54.446 -56.099 -62.904  0.00  0.00    +0.000 C 
ATOM     16  C   UNL     1     -54.568 -54.888 -63.579  0.00  0.00    +0.000 C 
ATOM     17  C   UNL     1     -53.778 -53.810 -63.190  0.00  0.00    +0.000 C 
ATOM     18  C   UNL     1     -52.874 -53.928 -62.140  0.00  0.00    +0.000 C 
ATOM     19  C   UNL     1     -52.758 -55.143 -61.468  0.00  0.00    +0.000 C 
ATOM     20  C   UNL     1     -53.543 -56.230 -61.850  0.00  0.00    +0.000 C 
ENDROOT
BRANCH  10  21
ATOM     21  O   UNL     1     -51.650 -56.679 -68.404  0.00  0.00    +0.000 OA
ATOM     22  H   UNL     1     -51.470 -56.182 -67.587  0.00  0.00    +0.000 HD
ENDBRANCH  10  21
BRANCH  17  23
ATOM     23  O   UNL     1     -53.871 -52.609 -63.831  0.00  0.00    +0.000 OA
ATOM     24  H   UNL     1     -54.291 -51.969 -63.229  0.00  0.00    +0.000 HD
ENDBRANCH  17  23
TORSDOF 2
ENDMDL
MODEL 3
REMARK VINA RESULT:      -6.2     44.580     47.715
REMARK  Name = Enterolactone.pdbqt.pdb
REMARK  2 active torsions:
REMARK  status: ('A' for Active; 'I' for Inactive)
REMARK    1  A    between atoms: C_10  and  O_14
REMARK    2  A    between atoms: C_19  and  O_23
REMARK                            x       y       z     vdW  Elec       q    Type
REMARK                         _______ _______ _______ _____ _____    ______ ____
ROOT
ATOM      1  O   UNL     1     -63.563 -54.848 -15.595  0.00  0.00    +0.000 OA
ATOM      2  O   UNL     1     -65.390 -53.689 -14.728  0.00  0.00    +0.000 OA
ATOM      3  C   UNL     1     -63.739 -54.200 -17.869  0.00  0.00    +0.000 C 
ATOM      4  C   UNL     1     -64.794 -53.579 -17.105  0.00  0.00    +0.000 C 
ATOM      5  C   UNL     1     -63.106 -54.895 -16.837  0.00  0.00    +0.000 C 
ATOM      6  C   UNL     1     -64.672 -54.013 -15.656  0.00  0.00    +0.000 C 
ATOM      7  C   UNL     1     -63.241 -53.760 -19.110  0.00  0.00    +0.000 C 
ATOM      8  C   UNL     1     -62.755 -53.305 -20.370  0.00  0.00    +0.000 C 
ATOM      9  C   UNL     1     -62.776 -51.945 -20.670  0.00  0.00    +0.000 C 
ATOM     10  C   UNL     1     -62.309 -51.514 -21.908  0.00  0.00    +0.000 C 
ATOM     11  C   UNL     1     -61.824 -52.422 -22.844  0.00  0.00    +0.000 C 
ATOM     12  C   UNL     1     -61.805 -53.780 -22.538  0.00  0.00    +0.000 C 
ATOM     13  C   UNL     1     -62.271 -54.222 -21.301  0.00  0.00    +0.000 C 
ATOM     14  C   UNL     1     -65.737 -52.652 -17.601  0.00  0.00    +0.000 C 
ATOM     15  C   UNL     1     -66.682 -51.713 -18.107  0.00  0.00    +0.000 C 
ATOM     16  C   UNL     1     -67.214 -51.885 -19.382  0.00  0.00    +0.000 C 
ATOM     17  C   UNL     1     -68.128 -50.955 -19.869  0.00  0.00    +0.000 C 
ATOM     18  C   UNL     1     -68.512 -49.860 -19.102  0.00  0.00    +0.000 C 
ATOM     19  C   UNL     1     -67.976 -49.694 -17.827  0.00  0.00    +0.000 C 
ATOM     20  C   UNL     1     -67.060 -50.620 -17.328  0.00  0.00    +0.000 C 
ENDROOT
BRANCH  10  21
ATOM     21  O   UNL     1     -62.316 -50.189 -22.233  0.00  0.00    +0.000 OA
ATOM     22  H   UNL     1     -61.432 -49.822 -22.057  0.00  0.00    +0.000 HD
ENDBRANCH  10  21
BRANCH  17  23
ATOM     23  O   UNL     1     -68.667 -51.093 -21.114  0.00  0.00    +0.000 OA
ATOM     24  H   UNL     1     -69.449 -50.515 -21.178  0.00  0.00    +0.000 HD
ENDBRANCH  17  23
TORSDOF 2
ENDMDL
MODEL 4
REMARK VINA RESULT:      -5.8     50.304     53.336
REMARK  Name = Enterolactone.pdbqt.pdb
REMARK  2 active torsions:
REMARK  status: ('A' for Active; 'I' for Inactive)
REMARK    1  A    between atoms: C_10  and  O_14
REMARK    2  A    between atoms: C_19  and  O_23
REMARK                            x       y       z     vdW  Elec       q    Type
REMARK                         _______ _______ _______ _____ _____    ______ ____
ROOT
ATOM      1  O   UNL     1     -64.227 -62.081 -16.388  0.00  0.00    +0.000 OA
ATOM      2  O   UNL     1     -64.643 -63.545 -14.622  0.00  0.00    +0.000 OA
ATOM      3  C   UNL     1     -64.721 -60.027 -15.312  0.00  0.00    +0.000 C 
ATOM      4  C   UNL     1     -64.904 -61.117 -14.384  0.00  0.00    +0.000 C 
ATOM      5  C   UNL     1     -64.314 -60.761 -16.427  0.00  0.00    +0.000 C 
ATOM      6  C   UNL     1     -64.593 -62.423 -15.092  0.00  0.00    +0.000 C 
ATOM      7  C   UNL     1     -64.496 -58.679 -14.977  0.00  0.00    +0.000 C 
ATOM      8  C   UNL     1     -64.278 -57.317 -14.619  0.00  0.00    +0.000 C 
ATOM      9  C   UNL     1     -63.604 -57.010 -13.439  0.00  0.00    +0.000 C 
ATOM     10  C   UNL     1     -63.407 -55.676 -13.096  0.00  0.00    +0.000 C 
ATOM     11  C   UNL     1     -63.872 -54.651 -13.913  0.00  0.00    +0.000 C 
ATOM     12  C   UNL     1     -64.544 -54.964 -15.092  0.00  0.00    +0.000 C 
ATOM     13  C   UNL     1     -64.747 -56.297 -15.445  0.00  0.00    +0.000 C 
ATOM     14  C   UNL     1     -65.235 -60.991 -13.016  0.00  0.00    +0.000 C 
ATOM     15  C   UNL     1     -65.563 -60.855 -11.636  0.00  0.00    +0.000 C 
ATOM     16  C   UNL     1     -66.475 -59.883 -11.234  0.00  0.00    +0.000 C 
ATOM     17  C   UNL     1     -66.779 -59.754  -9.882  0.00  0.00    +0.000 C 
ATOM     18  C   UNL     1     -66.185 -60.579  -8.933  0.00  0.00    +0.000 C 
ATOM     19  C   UNL     1     -65.274 -61.550  -9.343  0.00  0.00    +0.000 C 
ATOM     20  C   UNL     1     -64.962 -61.689 -10.694  0.00  0.00    +0.000 C 
ENDROOT
BRANCH  10  21
ATOM     21  O   UNL     1     -62.751 -55.342 -11.947  0.00  0.00    +0.000 OA
ATOM     22  H   UNL     1     -61.849 -55.704 -11.988  0.00  0.00    +0.000 HD
ENDBRANCH  10  21
BRANCH  17  23
ATOM     23  O   UNL     1     -67.666 -58.811  -9.454  0.00  0.00    +0.000 OA
ATOM     24  H   UNL     1     -68.466 -59.263  -9.131  0.00  0.00    +0.000 HD
ENDBRANCH  17  23
TORSDOF 2
ENDMDL
MODEL 5
REMARK VINA RESULT:      -5.7     11.332     13.502
REMARK  Name = Enterolactone.pdbqt.pdb
REMARK  2 active torsions:
REMARK  status: ('A' for Active; 'I' for Inactive)
REMARK    1  A    between atoms: C_10  and  O_14
REMARK    2  A    between atoms: C_19  and  O_23
REMARK                            x       y       z     vdW  Elec       q    Type
REMARK                         _______ _______ _______ _____ _____    ______ ____
ROOT
ATOM      1  O   UNL     1     -65.788 -60.527 -73.238  0.00  0.00    +0.000 OA
ATOM      2  O   UNL     1     -67.449 -59.446 -72.011  0.00  0.00    +0.000 OA
ATOM      3  C   UNL     1     -64.606 -61.560 -71.461  0.00  0.00    +0.000 C 
ATOM      4  C   UNL     1     -65.723 -60.815 -70.932  0.00  0.00    +0.000 C 
ATOM      5  C   UNL     1     -64.796 -61.297 -72.818  0.00  0.00    +0.000 C 
ATOM      6  C   UNL     1     -66.461 -60.153 -72.081  0.00  0.00    +0.000 C 
ATOM      7  C   UNL     1     -63.938 -62.622 -70.824  0.00  0.00    +0.000 C 
ATOM      8  C   UNL     1     -63.269 -63.691 -70.159  0.00  0.00    +0.000 C 
ATOM      9  C   UNL     1     -63.976 -64.514 -69.286  0.00  0.00    +0.000 C 
ATOM     10  C   UNL     1     -63.308 -65.548 -68.636  0.00  0.00    +0.000 C 
ATOM     11  C   UNL     1     -61.950 -65.766 -68.847  0.00  0.00    +0.000 C 
ATOM     12  C   UNL     1     -61.249 -64.939 -69.721  0.00  0.00    +0.000 C 
ATOM     13  C   UNL     1     -61.908 -63.901 -70.378  0.00  0.00    +0.000 C 
ATOM     14  C   UNL     1     -66.121 -60.773 -69.577  0.00  0.00    +0.000 C 
ATOM     15  C   UNL     1     -66.519 -60.740 -68.209  0.00  0.00    +0.000 C 
ATOM     16  C   UNL     1     -65.553 -60.700 -67.208  0.00  0.00    +0.000 C 
ATOM     17  C   UNL     1     -65.955 -60.680 -65.875  0.00  0.00    +0.000 C 
ATOM     18  C   UNL     1     -67.303 -60.700 -65.535  0.00  0.00    +0.000 C 
ATOM     19  C   UNL     1     -68.264 -60.739 -66.542  0.00  0.00    +0.000 C 
ATOM     20  C   UNL     1     -67.874 -60.760 -67.880  0.00  0.00    +0.000 C 
ENDROOT
BRANCH  10  21
ATOM     21  O   UNL     1     -63.971 -66.373 -67.774  0.00  0.00    +0.000 OA
ATOM     22  H   UNL     1     -64.905 -66.101 -67.742  0.00  0.00    +0.000 HD
ENDBRANCH  10  21
BRANCH  17  23
ATOM     23  O   UNL     1     -65.034 -60.642 -64.869  0.00  0.00    +0.000 OA
ATOM     24  H   UNL     1     -65.491 -60.808 -64.025  0.00  0.00    +0.000 HD
ENDBRANCH  17  23
TORSDOF 2
ENDMDL
MODEL 6
REMARK VINA RESULT:      -5.5      8.255     11.335
REMARK  Name = Enterolactone.pdbqt.pdb
REMARK  2 active torsions:
REMARK  status: ('A' for Active; 'I' for Inactive)
REMARK    1  A    between atoms: C_10  and  O_14
REMARK    2  A    between atoms: C_19  and  O_23
REMARK                            x       y       z     vdW  Elec       q    Type
REMARK                         _______ _______ _______ _____ _____    ______ ____
ROOT
ATOM      1  O   UNL     1     -63.596 -56.735 -55.096  0.00  0.00    +0.000 OA
ATOM      2  O   UNL     1     -62.622 -57.875 -53.311  0.00  0.00    +0.000 OA
ATOM      3  C   UNL     1     -61.633 -56.070 -56.247  0.00  0.00    +0.000 C 
ATOM      4  C   UNL     1     -61.274 -56.825 -55.070  0.00  0.00    +0.000 C 
ATOM      5  C   UNL     1     -63.022 -56.122 -56.119  0.00  0.00    +0.000 C 
ATOM      6  C   UNL     1     -62.540 -57.233 -54.342  0.00  0.00    +0.000 C 
ATOM      7  C   UNL     1     -60.830 -55.873 -57.385  0.00  0.00    +0.000 C 
ATOM      8  C   UNL     1     -59.999 -55.676 -58.527  0.00  0.00    +0.000 C 
ATOM      9  C   UNL     1     -59.085 -56.660 -58.895  0.00  0.00    +0.000 C 
ATOM     10  C   UNL     1     -58.272 -56.451 -60.006  0.00  0.00    +0.000 C 
ATOM     11  C   UNL     1     -58.363 -55.277 -60.747  0.00  0.00    +0.000 C 
ATOM     12  C   UNL     1     -59.280 -54.298 -60.374  0.00  0.00    +0.000 C 
ATOM     13  C   UNL     1     -60.098 -54.497 -59.263  0.00  0.00    +0.000 C 
ATOM     14  C   UNL     1     -59.963 -57.201 -54.698  0.00  0.00    +0.000 C 
ATOM     15  C   UNL     1     -58.639 -57.579 -54.332  0.00  0.00    +0.000 C 
ATOM     16  C   UNL     1     -57.586 -56.690 -54.524  0.00  0.00    +0.000 C 
ATOM     17  C   UNL     1     -56.296 -57.076 -54.172  0.00  0.00    +0.000 C 
ATOM     18  C   UNL     1     -56.048 -58.334 -53.635  0.00  0.00    +0.000 C 
ATOM     19  C   UNL     1     -57.107 -59.220 -53.445  0.00  0.00    +0.000 C 
ATOM     20  C   UNL     1     -58.403 -58.844 -53.793  0.00  0.00    +0.000 C 
ENDROOT
BRANCH  10  21
ATOM     21  O   UNL     1     -57.366 -57.394 -60.394  0.00  0.00    +0.000 OA
ATOM     22  H   UNL     1     -57.676 -58.265 -60.091  0.00  0.00    +0.000 HD
ENDBRANCH  10  21
BRANCH  17  23
ATOM     23  O   UNL     1     -55.242 -56.229 -54.349  0.00  0.00    +0.000 OA
ATOM     24  H   UNL     1     -54.900 -56.344 -55.253  0.00  0.00    +0.000 HD
ENDBRANCH  17  23
TORSDOF 2
ENDMDL
MODEL 7
REMARK VINA RESULT:      -5.4      4.594      6.325
REMARK  Name = Enterolactone.pdbqt.pdb
REMARK  2 active torsions:
REMARK  status: ('A' for Active; 'I' for Inactive)
REMARK    1  A    between atoms: C_10  and  O_14
REMARK    2  A    between atoms: C_19  and  O_23
REMARK                            x       y       z     vdW  Elec       q    Type
REMARK                         _______ _______ _______ _____ _____    ______ ____
ROOT
ATOM      1  O   UNL     1     -62.315 -61.648 -60.359  0.00  0.00    +0.000 OA
ATOM      2  O   UNL     1     -61.357 -62.522 -62.296  0.00  0.00    +0.000 OA
ATOM      3  C   UNL     1     -60.896 -59.777 -60.037  0.00  0.00    +0.000 C 
ATOM      4  C   UNL     1     -60.491 -60.494 -61.222  0.00  0.00    +0.000 C 
ATOM      5  C   UNL     1     -61.978 -60.574 -59.662  0.00  0.00    +0.000 C 
ATOM      6  C   UNL     1     -61.403 -61.692 -61.407  0.00  0.00    +0.000 C 
ATOM      7  C   UNL     1     -60.611 -58.430 -59.742  0.00  0.00    +0.000 C 
ATOM      8  C   UNL     1     -60.306 -57.068 -59.456  0.00  0.00    +0.000 C 
ATOM      9  C   UNL     1     -60.169 -56.155 -60.499  0.00  0.00    +0.000 C 
ATOM     10  C   UNL     1     -59.861 -54.830 -60.207  0.00  0.00    +0.000 C 
ATOM     11  C   UNL     1     -59.689 -54.409 -58.893  0.00  0.00    +0.000 C 
ATOM     12  C   UNL     1     -59.827 -55.326 -57.854  0.00  0.00    +0.000 C 
ATOM     13  C   UNL     1     -60.136 -56.656 -58.135  0.00  0.00    +0.000 C 
ATOM     14  C   UNL     1     -59.470 -60.102 -62.117  0.00  0.00    +0.000 C 
ATOM     15  C   UNL     1     -58.441 -59.698 -63.017  0.00  0.00    +0.000 C 
ATOM     16  C   UNL     1     -57.270 -59.133 -62.521  0.00  0.00    +0.000 C 
ATOM     17  C   UNL     1     -56.278 -58.732 -63.411  0.00  0.00    +0.000 C 
ATOM     18  C   UNL     1     -56.443 -58.888 -64.783  0.00  0.00    +0.000 C 
ATOM     19  C   UNL     1     -57.618 -59.455 -65.273  0.00  0.00    +0.000 C 
ATOM     20  C   UNL     1     -58.618 -59.860 -64.390  0.00  0.00    +0.000 C 
ENDROOT
BRANCH  10  21
ATOM     21  O   UNL     1     -59.719 -53.911 -61.206  0.00  0.00    +0.000 OA
ATOM     22  H   UNL     1     -59.767 -54.372 -62.061  0.00  0.00    +0.000 HD
ENDBRANCH  10  21
BRANCH  17  23
ATOM     23  O   UNL     1     -55.119 -58.174 -62.958  0.00  0.00    +0.000 OA
ATOM     24  H   UNL     1     -54.955 -57.354 -63.458  0.00  0.00    +0.000 HD
ENDBRANCH  17  23
TORSDOF 2
ENDMDL
MODEL 8
REMARK VINA RESULT:      -5.4     35.265     38.300
REMARK  Name = Enterolactone.pdbqt.pdb
REMARK  2 active torsions:
REMARK  status: ('A' for Active; 'I' for Inactive)
REMARK    1  A    between atoms: C_10  and  O_14
REMARK    2  A    between atoms: C_19  and  O_23
REMARK                            x       y       z     vdW  Elec       q    Type
REMARK                         _______ _______ _______ _____ _____    ______ ____
ROOT
ATOM      1  O   UNL     1     -67.284 -47.975 -34.876  0.00  0.00    +0.000 OA
ATOM      2  O   UNL     1     -65.237 -47.143 -34.131  0.00  0.00    +0.000 OA
ATOM      3  C   UNL     1     -68.076 -48.919 -32.851  0.00  0.00    +0.000 C 
ATOM      4  C   UNL     1     -66.783 -48.316 -32.631  0.00  0.00    +0.000 C 
ATOM      5  C   UNL     1     -68.225 -48.621 -34.206  0.00  0.00    +0.000 C 
ATOM      6  C   UNL     1     -66.288 -47.726 -33.939  0.00  0.00    +0.000 C 
ATOM      7  C   UNL     1     -69.044 -49.193 -31.866  0.00  0.00    +0.000 C 
ATOM      8  C   UNL     1     -70.009 -49.470 -30.855  0.00  0.00    +0.000 C 
ATOM      9  C   UNL     1     -70.088 -48.652 -29.731  0.00  0.00    +0.000 C 
ATOM     10  C   UNL     1     -71.028 -48.940 -28.745  0.00  0.00    +0.000 C 
ATOM     11  C   UNL     1     -71.883 -50.029 -28.870  0.00  0.00    +0.000 C 
ATOM     12  C   UNL     1     -71.799 -50.844 -29.996  0.00  0.00    +0.000 C 
ATOM     13  C   UNL     1     -70.861 -50.565 -30.989  0.00  0.00    +0.000 C 
ATOM     14  C   UNL     1     -66.120 -48.211 -31.388  0.00  0.00    +0.000 C 
ATOM     15  C   UNL     1     -65.461 -48.106 -30.129  0.00  0.00    +0.000 C 
ATOM     16  C   UNL     1     -65.523 -49.161 -29.224  0.00  0.00    +0.000 C 
ATOM     17  C   UNL     1     -64.884 -49.041 -27.994  0.00  0.00    +0.000 C 
ATOM     18  C   UNL     1     -64.187 -47.884 -27.660  0.00  0.00    +0.000 C 
ATOM     19  C   UNL     1     -64.128 -46.832 -28.571  0.00  0.00    +0.000 C 
ATOM     20  C   UNL     1     -64.765 -46.941 -29.806  0.00  0.00    +0.000 C 
ENDROOT
BRANCH  10  21
ATOM     21  O   UNL     1     -71.132 -48.158 -27.632  0.00  0.00    +0.000 OA
ATOM     22  H   UNL     1     -72.071 -48.090 -27.387  0.00  0.00    +0.000 HD
ENDBRANCH  10  21
BRANCH  17  23
ATOM     23  O   UNL     1     -64.926 -50.055 -27.083  0.00  0.00    +0.000 OA
ATOM     24  H   UNL     1     -65.249 -49.698 -26.237  0.00  0.00    +0.000 HD
ENDBRANCH  17  23
TORSDOF 2
ENDMDL
MODEL 9
REMARK VINA RESULT:      -5.3      3.257      7.963
REMARK  Name = Enterolactone.pdbqt.pdb
REMARK  2 active torsions:
REMARK  status: ('A' for Active; 'I' for Inactive)
REMARK    1  A    between atoms: C_10  and  O_14
REMARK    2  A    between atoms: C_19  and  O_23
REMARK                            x       y       z     vdW  Elec       q    Type
REMARK                         _______ _______ _______ _____ _____    ______ ____
ROOT
ATOM      1  O   UNL     1     -53.637 -55.569 -63.522  0.00  0.00    +0.000 OA
ATOM      2  O   UNL     1     -54.539 -53.923 -62.139  0.00  0.00    +0.000 OA
ATOM      3  C   UNL     1     -55.193 -57.310 -63.115  0.00  0.00    +0.000 C 
ATOM      4  C   UNL     1     -55.560 -56.143 -62.349  0.00  0.00    +0.000 C 
ATOM      5  C   UNL     1     -54.060 -56.802 -63.751  0.00  0.00    +0.000 C 
ATOM      6  C   UNL     1     -54.549 -55.044 -62.614  0.00  0.00    +0.000 C 
ATOM      7  C   UNL     1     -56.048 -58.366 -63.484  0.00  0.00    +0.000 C 
ATOM      8  C   UNL     1     -56.927 -59.430 -63.840  0.00  0.00    +0.000 C 
ATOM      9  C   UNL     1     -58.279 -59.170 -64.051  0.00  0.00    +0.000 C 
ATOM     10  C   UNL     1     -59.128 -60.220 -64.389  0.00  0.00    +0.000 C 
ATOM     11  C   UNL     1     -58.644 -61.517 -64.518  0.00  0.00    +0.000 C 
ATOM     12  C   UNL     1     -57.291 -61.770 -64.306  0.00  0.00    +0.000 C 
ATOM     13  C   UNL     1     -56.432 -60.727 -63.967  0.00  0.00    +0.000 C 
ATOM     14  C   UNL     1     -56.717 -56.010 -61.549  0.00  0.00    +0.000 C 
ATOM     15  C   UNL     1     -57.889 -55.882 -60.748  0.00  0.00    +0.000 C 
ATOM     16  C   UNL     1     -58.331 -56.963 -59.991  0.00  0.00    +0.000 C 
ATOM     17  C   UNL     1     -59.483 -56.829 -59.222  0.00  0.00    +0.000 C 
ATOM     18  C   UNL     1     -60.194 -55.633 -59.201  0.00  0.00    +0.000 C 
ATOM     19  C   UNL     1     -59.745 -54.555 -59.960  0.00  0.00    +0.000 C 
ATOM     20  C   UNL     1     -58.592 -54.679 -60.735  0.00  0.00    +0.000 C 
ENDROOT
BRANCH  10  21
ATOM     21  O   UNL     1     -60.458 -59.999 -64.602  0.00  0.00    +0.000 OA
ATOM     22  H   UNL     1     -60.961 -60.416 -63.880  0.00  0.00    +0.000 HD
ENDBRANCH  10  21
BRANCH  17  23
ATOM     23  O   UNL     1     -59.945 -57.869 -58.469  0.00  0.00    +0.000 OA
ATOM     24  H   UNL     1     -60.892 -57.993 -58.661  0.00  0.00    +0.000 HD
ENDBRANCH  17  23
TORSDOF 2
ENDMDL
