MODEL 1
REMARK VINA RESULT:      -6.1      0.000      0.000
REMARK  Name = Estradiol.pdbqt.pdb
REMARK  2 active torsions:
REMARK  status: ('A' for Active; 'I' for Inactive)
REMARK    1  A    between atoms: C_5  and  O_19
REMARK    2  A    between atoms: C_18  and  O_21
REMARK                            x       y       z     vdW  Elec       q    Type
REMARK                         _______ _______ _______ _____ _____    ______ ____
ROOT
ATOM      1  C   UNL     1     -74.948 -55.153 -21.674  0.00  0.00    +0.000 C 
ATOM      2  C   UNL     1     -73.851 -56.325 -21.665  0.00  0.00    +0.000 C 
ATOM      3  C   UNL     1     -73.391 -56.958 -22.911  0.00  0.00    +0.000 A 
ATOM      4  C   UNL     1     -73.661 -56.469 -24.318  0.00  0.00    +0.000 A 
ATOM      5  C   UNL     1     -74.364 -54.133 -20.674  0.00  0.00    +0.000 C 
ATOM      6  C   UNL     1     -75.008 -54.667 -23.054  0.00  0.00    +0.000 C 
ATOM      7  C   UNL     1     -72.910 -56.007 -20.633  0.00  0.00    +0.000 C 
ATOM      8  C   UNL     1     -74.437 -55.283 -24.308  0.00  0.00    +0.000 C 
ATOM      9  C   UNL     1     -73.201 -54.649 -20.044  0.00  0.00    +0.000 C 
ATOM     10  C   UNL     1     -72.573 -58.117 -22.913  0.00  0.00    +0.000 A 
ATOM     11  C   UNL     1     -76.292 -55.724 -21.151  0.00  0.00    +0.000 C 
ATOM     12  C   UNL     1     -73.166 -57.152 -25.560  0.00  0.00    +0.000 A 
ATOM     13  C   UNL     1     -72.067 -58.793 -24.163  0.00  0.00    +0.000 A 
ATOM     14  C   UNL     1     -72.360 -58.328 -25.478  0.00  0.00    +0.000 A 
ATOM     15  C   UNL     1     -73.485 -56.656 -26.824  0.00  0.00    +0.000 A 
ATOM     16  C   UNL     1     -71.899 -58.979 -26.614  0.00  0.00    +0.000 A 
ATOM     17  C   UNL     1     -73.026 -57.305 -27.970  0.00  0.00    +0.000 A 
ATOM     18  C   UNL     1     -72.242 -58.455 -27.855  0.00  0.00    +0.000 A 
ENDROOT
BRANCH   5  19
ATOM     19  O   UNL     1     -74.630 -52.783 -20.742  0.00  0.00    +0.000 OA
ATOM     20  H   UNL     1     -75.556 -52.586 -20.513  0.00  0.00    +0.000 HD
ENDBRANCH   5  19
BRANCH  18  21
ATOM     21  O   UNL     1     -71.793 -59.098 -28.973  0.00  0.00    +0.000 OA
ATOM     22  H   UNL     1     -72.411 -58.914 -29.703  0.00  0.00    +0.000 HD
ENDBRANCH  18  21
TORSDOF 2
ENDMDL
MODEL 2
REMARK VINA RESULT:      -6.0      8.237     10.156
REMARK  Name = Estradiol.pdbqt.pdb
REMARK  2 active torsions:
REMARK  status: ('A' for Active; 'I' for Inactive)
REMARK    1  A    between atoms: C_5  and  O_19
REMARK    2  A    between atoms: C_18  and  O_21
REMARK                            x       y       z     vdW  Elec       q    Type
REMARK                         _______ _______ _______ _____ _____    ______ ____
ROOT
ATOM      1  C   UNL     1     -72.038 -54.889 -31.886  0.00  0.00    +0.000 C 
ATOM      2  C   UNL     1     -70.729 -55.649 -31.350  0.00  0.00    +0.000 C 
ATOM      3  C   UNL     1     -69.912 -56.491 -32.238  0.00  0.00    +0.000 A 
ATOM      4  C   UNL     1     -70.012 -56.566 -33.746  0.00  0.00    +0.000 A 
ATOM      5  C   UNL     1     -71.896 -53.486 -31.258  0.00  0.00    +0.000 C 
ATOM      6  C   UNL     1     -71.941 -54.899 -33.346  0.00  0.00    +0.000 C 
ATOM      7  C   UNL     1     -70.096 -54.775 -30.408  0.00  0.00    +0.000 C 
ATOM      8  C   UNL     1     -71.020 -55.698 -34.236  0.00  0.00    +0.000 C 
ATOM      9  C   UNL     1     -70.788 -53.437 -30.371  0.00  0.00    +0.000 C 
ATOM     10  C   UNL     1     -68.871 -57.320 -31.746  0.00  0.00    +0.000 A 
ATOM     11  C   UNL     1     -73.295 -55.610 -31.334  0.00  0.00    +0.000 C 
ATOM     12  C   UNL     1     -69.151 -57.442 -34.609  0.00  0.00    +0.000 A 
ATOM     13  C   UNL     1     -67.999 -58.190 -32.617  0.00  0.00    +0.000 A 
ATOM     14  C   UNL     1     -68.133 -58.263 -34.034  0.00  0.00    +0.000 A 
ATOM     15  C   UNL     1     -69.327 -57.479 -35.992  0.00  0.00    +0.000 A 
ATOM     16  C   UNL     1     -67.333 -59.087 -34.813  0.00  0.00    +0.000 A 
ATOM     17  C   UNL     1     -68.526 -58.305 -36.781  0.00  0.00    +0.000 A 
ATOM     18  C   UNL     1     -67.542 -59.097 -36.187  0.00  0.00    +0.000 A 
ENDROOT
BRANCH   5  19
ATOM     19  O   UNL     1     -72.439 -52.354 -31.827  0.00  0.00    +0.000 OA
ATOM     20  H   UNL     1     -71.750 -51.714 -32.083  0.00  0.00    +0.000 HD
ENDBRANCH   5  19
BRANCH  18  21
ATOM     21  O   UNL     1     -66.757 -59.912 -36.953  0.00  0.00    +0.000 OA
ATOM     22  H   UNL     1     -67.336 -60.469 -37.501  0.00  0.00    +0.000 HD
ENDBRANCH  18  21
TORSDOF 2
ENDMDL
MODEL 3
REMARK VINA RESULT:      -6.0      7.195     11.845
REMARK  Name = Estradiol.pdbqt.pdb
REMARK  2 active torsions:
REMARK  status: ('A' for Active; 'I' for Inactive)
REMARK    1  A    between atoms: C_5  and  O_19
REMARK    2  A    between atoms: C_18  and  O_21
REMARK                            x       y       z     vdW  Elec       q    Type
REMARK                         _______ _______ _______ _____ _____    ______ ____
ROOT
ATOM      1  C   UNL     1     -68.733 -58.675 -34.599  0.00  0.00    +0.000 C 
ATOM      2  C   UNL     1     -69.725 -57.472 -34.986  0.00  0.00    +0.000 C 
ATOM      3  C   UNL     1     -70.285 -56.578 -33.962  0.00  0.00    +0.000 A 
ATOM      4  C   UNL     1     -69.850 -56.486 -32.515  0.00  0.00    +0.000 A 
ATOM      5  C   UNL     1     -67.632 -58.567 -35.674  0.00  0.00    +0.000 C 
ATOM      6  C   UNL     1     -68.268 -58.392 -33.240  0.00  0.00    +0.000 C 
ATOM      7  C   UNL     1     -69.261 -56.936 -36.231  0.00  0.00    +0.000 C 
ATOM      8  C   UNL     1     -68.795 -57.392 -32.239  0.00  0.00    +0.000 C 
ATOM      9  C   UNL     1     -67.962 -57.580 -36.642  0.00  0.00    +0.000 C 
ATOM     10  C   UNL     1     -71.306 -55.638 -34.256  0.00  0.00    +0.000 A 
ATOM     11  C   UNL     1     -69.500 -60.016 -34.734  0.00  0.00    +0.000 C 
ATOM     12  C   UNL     1     -70.454 -55.552 -31.507  0.00  0.00    +0.000 A 
ATOM     13  C   UNL     1     -71.902 -54.691 -33.244  0.00  0.00    +0.000 A 
ATOM     14  C   UNL     1     -71.493 -54.645 -31.879  0.00  0.00    +0.000 A 
ATOM     15  C   UNL     1     -70.018 -55.550 -30.182  0.00  0.00    +0.000 A 
ATOM     16  C   UNL     1     -72.071 -53.780 -30.960  0.00  0.00    +0.000 A 
ATOM     17  C   UNL     1     -70.595 -54.684 -29.253  0.00  0.00    +0.000 A 
ATOM     18  C   UNL     1     -71.611 -53.812 -29.649  0.00  0.00    +0.000 A 
ENDROOT
BRANCH   5  19
ATOM     19  O   UNL     1     -66.338 -58.993 -35.465  0.00  0.00    +0.000 OA
ATOM     20  H   UNL     1     -66.255 -59.958 -35.569  0.00  0.00    +0.000 HD
ENDBRANCH   5  19
BRANCH  18  21
ATOM     21  O   UNL     1     -72.184 -52.964 -28.745  0.00  0.00    +0.000 OA
ATOM     22  H   UNL     1     -71.639 -52.158 -28.691  0.00  0.00    +0.000 HD
ENDBRANCH  18  21
TORSDOF 2
ENDMDL
MODEL 4
REMARK VINA RESULT:      -5.9     32.685     36.293
REMARK  Name = Estradiol.pdbqt.pdb
REMARK  2 active torsions:
REMARK  status: ('A' for Active; 'I' for Inactive)
REMARK    1  A    between atoms: C_5  and  O_19
REMARK    2  A    between atoms: C_18  and  O_21
REMARK                            x       y       z     vdW  Elec       q    Type
REMARK                         _______ _______ _______ _____ _____    ______ ____
ROOT
ATOM      1  C   UNL     1     -67.439 -47.023 -55.777  0.00  0.00    +0.000 C 
ATOM      2  C   UNL     1     -67.363 -47.657 -57.251  0.00  0.00    +0.000 C 
ATOM      3  C   UNL     1     -66.184 -47.467 -58.110  0.00  0.00    +0.000 A 
ATOM      4  C   UNL     1     -64.845 -46.907 -57.683  0.00  0.00    +0.000 A 
ATOM      5  C   UNL     1     -68.018 -48.182 -54.938  0.00  0.00    +0.000 C 
ATOM      6  C   UNL     1     -66.066 -46.660 -55.423  0.00  0.00    +0.000 C 
ATOM      7  C   UNL     1     -68.006 -48.936 -57.187  0.00  0.00    +0.000 C 
ATOM      8  C   UNL     1     -64.844 -46.571 -56.306  0.00  0.00    +0.000 C 
ATOM      9  C   UNL     1     -68.380 -49.277 -55.767  0.00  0.00    +0.000 C 
ATOM     10  C   UNL     1     -66.174 -47.851 -59.475  0.00  0.00    +0.000 A 
ATOM     11  C   UNL     1     -68.421 -45.822 -55.801  0.00  0.00    +0.000 C 
ATOM     12  C   UNL     1     -63.668 -46.735 -58.600  0.00  0.00    +0.000 A 
ATOM     13  C   UNL     1     -64.986 -47.689 -60.391  0.00  0.00    +0.000 A 
ATOM     14  C   UNL     1     -63.744 -47.131 -59.970  0.00  0.00    +0.000 A 
ATOM     15  C   UNL     1     -62.475 -46.180 -58.137  0.00  0.00    +0.000 A 
ATOM     16  C   UNL     1     -62.671 -46.973 -60.836  0.00  0.00    +0.000 A 
ATOM     17  C   UNL     1     -61.393 -46.018 -59.002  0.00  0.00    +0.000 A 
ATOM     18  C   UNL     1     -61.501 -46.413 -60.337  0.00  0.00    +0.000 A 
ENDROOT
BRANCH   5  19
ATOM     19  O   UNL     1     -67.769 -48.326 -53.590  0.00  0.00    +0.000 OA
ATOM     20  H   UNL     1     -68.255 -47.667 -53.062  0.00  0.00    +0.000 HD
ENDBRANCH   5  19
BRANCH  18  21
ATOM     21  O   UNL     1     -60.447 -46.253 -61.191  0.00  0.00    +0.000 OA
ATOM     22  H   UNL     1     -59.727 -46.842 -60.905  0.00  0.00    +0.000 HD
ENDBRANCH  18  21
TORSDOF 2
ENDMDL
MODEL 5
REMARK VINA RESULT:      -5.9      1.385      6.776
REMARK  Name = Estradiol.pdbqt.pdb
REMARK  2 active torsions:
REMARK  status: ('A' for Active; 'I' for Inactive)
REMARK    1  A    between atoms: C_5  and  O_19
REMARK    2  A    between atoms: C_18  and  O_21
REMARK                            x       y       z     vdW  Elec       q    Type
REMARK                         _______ _______ _______ _____ _____    ______ ____
ROOT
ATOM      1  C   UNL     1     -73.416 -58.458 -24.824  0.00  0.00    +0.000 C 
ATOM      2  C   UNL     1     -73.977 -56.958 -24.946  0.00  0.00    +0.000 C 
ATOM      3  C   UNL     1     -74.100 -56.085 -23.769  0.00  0.00    +0.000 A 
ATOM      4  C   UNL     1     -73.518 -56.343 -22.396  0.00  0.00    +0.000 A 
ATOM      5  C   UNL     1     -72.454 -58.559 -26.026  0.00  0.00    +0.000 C 
ATOM      6  C   UNL     1     -72.751 -58.534 -23.522  0.00  0.00    +0.000 C 
ATOM      7  C   UNL     1     -73.486 -56.429 -26.183  0.00  0.00    +0.000 C 
ATOM      8  C   UNL     1     -72.809 -57.570 -22.362  0.00  0.00    +0.000 C 
ATOM      9  C   UNL     1     -72.527 -57.393 -26.834  0.00  0.00    +0.000 C 
ATOM     10  C   UNL     1     -74.769 -54.834 -23.821  0.00  0.00    +0.000 A 
ATOM     11  C   UNL     1     -74.599 -59.448 -24.984  0.00  0.00    +0.000 C 
ATOM     12  C   UNL     1     -73.670 -55.416 -21.224  0.00  0.00    +0.000 A 
ATOM     13  C   UNL     1     -74.908 -53.900 -22.645  0.00  0.00    +0.000 A 
ATOM     14  C   UNL     1     -74.374 -54.181 -21.354  0.00  0.00    +0.000 A 
ATOM     15  C   UNL     1     -73.130 -55.742 -19.980  0.00  0.00    +0.000 A 
ATOM     16  C   UNL     1     -74.533 -53.314 -20.281  0.00  0.00    +0.000 A 
ATOM     17  C   UNL     1     -73.287 -54.876 -18.897  0.00  0.00    +0.000 A 
ATOM     18  C   UNL     1     -73.984 -53.677 -19.057  0.00  0.00    +0.000 A 
ENDROOT
BRANCH   5  19
ATOM     19  O   UNL     1     -71.366 -59.404 -26.044  0.00  0.00    +0.000 OA
ATOM     20  H   UNL     1     -71.430 -60.059 -26.762  0.00  0.00    +0.000 HD
ENDBRANCH   5  19
BRANCH  18  21
ATOM     21  O   UNL     1     -74.145 -52.826 -18.001  0.00  0.00    +0.000 OA
ATOM     22  H   UNL     1     -73.542 -53.104 -17.288  0.00  0.00    +0.000 HD
ENDBRANCH  18  21
TORSDOF 2
ENDMDL
MODEL 6
REMARK VINA RESULT:      -5.7      8.273     13.308
REMARK  Name = Estradiol.pdbqt.pdb
REMARK  2 active torsions:
REMARK  status: ('A' for Active; 'I' for Inactive)
REMARK    1  A    between atoms: C_5  and  O_19
REMARK    2  A    between atoms: C_18  and  O_21
REMARK                            x       y       z     vdW  Elec       q    Type
REMARK                         _______ _______ _______ _____ _____    ______ ____
ROOT
ATOM      1  C   UNL     1     -68.603 -56.993 -37.724  0.00  0.00    +0.000 C 
ATOM      2  C   UNL     1     -67.955 -57.658 -36.414  0.00  0.00    +0.000 C 
ATOM      3  C   UNL     1     -68.461 -57.352 -35.066  0.00  0.00    +0.000 A 
ATOM      4  C   UNL     1     -69.744 -56.620 -34.734  0.00  0.00    +0.000 A 
ATOM      5  C   UNL     1     -68.705 -58.187 -38.695  0.00  0.00    +0.000 C 
ATOM      6  C   UNL     1     -69.899 -56.455 -37.305  0.00  0.00    +0.000 C 
ATOM      7  C   UNL     1     -67.604 -59.002 -36.760  0.00  0.00    +0.000 C 
ATOM      8  C   UNL     1     -70.439 -56.245 -35.911  0.00  0.00    +0.000 C 
ATOM      9  C   UNL     1     -68.089 -59.343 -38.145  0.00  0.00    +0.000 C 
ATOM     10  C   UNL     1     -67.786 -57.773 -33.892  0.00  0.00    +0.000 A 
ATOM     11  C   UNL     1     -67.626 -55.922 -38.275  0.00  0.00    +0.000 C 
ATOM     12  C   UNL     1     -70.218 -56.335 -33.339  0.00  0.00    +0.000 A 
ATOM     13  C   UNL     1     -68.272 -57.496 -32.491  0.00  0.00    +0.000 A 
ATOM     14  C   UNL     1     -69.470 -56.779 -32.206  0.00  0.00    +0.000 A 
ATOM     15  C   UNL     1     -71.398 -55.625 -33.115  0.00  0.00    +0.000 A 
ATOM     16  C   UNL     1     -69.887 -56.517 -30.907  0.00  0.00    +0.000 A 
ATOM     17  C   UNL     1     -71.822 -55.358 -31.813  0.00  0.00    +0.000 A 
ATOM     18  C   UNL     1     -71.066 -55.804 -30.727  0.00  0.00    +0.000 A 
ENDROOT
BRANCH   5  19
ATOM     19  O   UNL     1     -69.650 -58.259 -39.696  0.00  0.00    +0.000 OA
ATOM     20  H   UNL     1     -69.588 -59.096 -40.191  0.00  0.00    +0.000 HD
ENDBRANCH   5  19
BRANCH  18  21
ATOM     21  O   UNL     1     -71.472 -55.543 -29.450  0.00  0.00    +0.000 OA
ATOM     22  H   UNL     1     -70.943 -56.089 -28.842  0.00  0.00    +0.000 HD
ENDBRANCH  18  21
TORSDOF 2
ENDMDL
MODEL 7
REMARK VINA RESULT:      -5.6     47.530     52.050
REMARK  Name = Estradiol.pdbqt.pdb
REMARK  2 active torsions:
REMARK  status: ('A' for Active; 'I' for Inactive)
REMARK    1  A    between atoms: C_5  and  O_19
REMARK    2  A    between atoms: C_18  and  O_21
REMARK                            x       y       z     vdW  Elec       q    Type
REMARK                         _______ _______ _______ _____ _____    ______ ____
ROOT
ATOM      1  C   UNL     1     -66.224 -60.160 -77.902  0.00  0.00    +0.000 C 
ATOM      2  C   UNL     1     -67.087 -59.387 -76.789  0.00  0.00    +0.000 C 
ATOM      3  C   UNL     1     -66.916 -59.662 -75.355  0.00  0.00    +0.000 A 
ATOM      4  C   UNL     1     -65.801 -60.469 -74.723  0.00  0.00    +0.000 A 
ATOM      5  C   UNL     1     -65.815 -59.025 -78.863  0.00  0.00    +0.000 C 
ATOM      6  C   UNL     1     -65.101 -60.770 -77.189  0.00  0.00    +0.000 C 
ATOM      7  C   UNL     1     -67.243 -58.038 -77.247  0.00  0.00    +0.000 C 
ATOM      8  C   UNL     1     -64.898 -60.951 -75.703  0.00  0.00    +0.000 C 
ATOM      9  C   UNL     1     -66.439 -57.802 -78.501  0.00  0.00    +0.000 C 
ATOM     10  C   UNL     1     -67.795 -59.136 -74.374  0.00  0.00    +0.000 A 
ATOM     11  C   UNL     1     -67.142 -61.183 -78.622  0.00  0.00    +0.000 C 
ATOM     12  C   UNL     1     -65.669 -60.720 -73.249  0.00  0.00    +0.000 A 
ATOM     13  C   UNL     1     -67.652 -59.380 -72.892  0.00  0.00    +0.000 A 
ATOM     14  C   UNL     1     -66.608 -60.168 -72.325  0.00  0.00    +0.000 A 
ATOM     15  C   UNL     1     -64.629 -61.502 -72.747  0.00  0.00    +0.000 A 
ATOM     16  C   UNL     1     -66.509 -60.395 -70.959  0.00  0.00    +0.000 A 
ATOM     17  C   UNL     1     -64.524 -61.735 -71.375  0.00  0.00    +0.000 A 
ATOM     18  C   UNL     1     -65.460 -61.183 -70.499  0.00  0.00    +0.000 A 
ENDROOT
BRANCH   5  19
ATOM     19  O   UNL     1     -64.671 -59.071 -79.631  0.00  0.00    +0.000 OA
ATOM     20  H   UNL     1     -64.783 -58.596 -80.474  0.00  0.00    +0.000 HD
ENDBRANCH   5  19
BRANCH  18  21
ATOM     21  O   UNL     1     -65.366 -61.410 -69.156  0.00  0.00    +0.000 OA
ATOM     22  H   UNL     1     -65.955 -62.151 -68.928  0.00  0.00    +0.000 HD
ENDBRANCH  18  21
TORSDOF 2
ENDMDL
MODEL 8
REMARK VINA RESULT:      -5.5     34.745     36.789
REMARK  Name = Estradiol.pdbqt.pdb
REMARK  2 active torsions:
REMARK  status: ('A' for Active; 'I' for Inactive)
REMARK    1  A    between atoms: C_5  and  O_19
REMARK    2  A    between atoms: C_18  and  O_21
REMARK                            x       y       z     vdW  Elec       q    Type
REMARK                         _______ _______ _______ _____ _____    ______ ____
ROOT
ATOM      1  C   UNL     1     -68.784 -47.232 -57.704  0.00  0.00    +0.000 C 
ATOM      2  C   UNL     1     -67.584 -46.615 -56.833  0.00  0.00    +0.000 C 
ATOM      3  C   UNL     1     -66.201 -46.598 -57.333  0.00  0.00    +0.000 A 
ATOM      4  C   UNL     1     -65.754 -46.898 -58.748  0.00  0.00    +0.000 A 
ATOM      5  C   UNL     1     -69.905 -46.187 -57.526  0.00  0.00    +0.000 C 
ATOM      6  C   UNL     1     -68.277 -47.333 -59.074  0.00  0.00    +0.000 C 
ATOM      7  C   UNL     1     -68.113 -45.474 -56.146  0.00  0.00    +0.000 C 
ATOM      8  C   UNL     1     -66.860 -47.209 -59.579  0.00  0.00    +0.000 C 
ATOM      9  C   UNL     1     -69.524 -45.188 -56.591  0.00  0.00    +0.000 C 
ATOM     10  C   UNL     1     -65.104 -46.237 -56.509  0.00  0.00    +0.000 A 
ATOM     11  C   UNL     1     -69.201 -48.591 -57.086  0.00  0.00    +0.000 C 
ATOM     12  C   UNL     1     -64.326 -46.865 -59.209  0.00  0.00    +0.000 A 
ATOM     13  C   UNL     1     -63.671 -46.192 -56.980  0.00  0.00    +0.000 A 
ATOM     14  C   UNL     1     -63.274 -46.508 -58.312  0.00  0.00    +0.000 A 
ATOM     15  C   UNL     1     -63.992 -47.186 -60.525  0.00  0.00    +0.000 A 
ATOM     16  C   UNL     1     -61.947 -46.480 -58.716  0.00  0.00    +0.000 A 
ATOM     17  C   UNL     1     -62.660 -47.160 -60.938  0.00  0.00    +0.000 A 
ATOM     18  C   UNL     1     -61.655 -46.810 -60.035  0.00  0.00    +0.000 A 
ENDROOT
BRANCH   5  19
ATOM     19  O   UNL     1     -70.892 -45.981 -58.466  0.00  0.00    +0.000 OA
ATOM     20  H   UNL     1     -70.553 -46.086 -59.373  0.00  0.00    +0.000 HD
ENDBRANCH   5  19
BRANCH  18  21
ATOM     21  O   UNL     1     -60.348 -46.787 -60.431  0.00  0.00    +0.000 OA
ATOM     22  H   UNL     1     -60.015 -45.877 -60.335  0.00  0.00    +0.000 HD
ENDBRANCH  18  21
TORSDOF 2
ENDMDL
MODEL 9
REMARK VINA RESULT:      -5.5     12.812     14.066
REMARK  Name = Estradiol.pdbqt.pdb
REMARK  2 active torsions:
REMARK  status: ('A' for Active; 'I' for Inactive)
REMARK    1  A    between atoms: C_5  and  O_19
REMARK    2  A    between atoms: C_18  and  O_21
REMARK                            x       y       z     vdW  Elec       q    Type
REMARK                         _______ _______ _______ _____ _____    ______ ____
ROOT
ATOM      1  C   UNL     1     -64.481 -47.240 -28.569  0.00  0.00    +0.000 C 
ATOM      2  C   UNL     1     -65.259 -48.550 -29.078  0.00  0.00    +0.000 C 
ATOM      3  C   UNL     1     -65.887 -48.603 -30.408  0.00  0.00    +0.000 A 
ATOM      4  C   UNL     1     -65.696 -47.607 -31.530  0.00  0.00    +0.000 A 
ATOM      5  C   UNL     1     -63.208 -47.830 -27.927  0.00  0.00    +0.000 C 
ATOM      6  C   UNL     1     -64.226 -46.433 -29.763  0.00  0.00    +0.000 C 
ATOM      7  C   UNL     1     -64.536 -49.683 -28.581  0.00  0.00    +0.000 C 
ATOM      8  C   UNL     1     -64.806 -46.570 -31.150  0.00  0.00    +0.000 C 
ATOM      9  C   UNL     1     -63.262 -49.249 -27.902  0.00  0.00    +0.000 C 
ATOM     10  C   UNL     1     -66.737 -49.669 -30.800  0.00  0.00    +0.000 A 
ATOM     11  C   UNL     1     -65.352 -46.527 -27.502  0.00  0.00    +0.000 C 
ATOM     12  C   UNL     1     -66.359 -47.707 -32.873  0.00  0.00    +0.000 A 
ATOM     13  C   UNL     1     -67.392 -49.774 -32.155  0.00  0.00    +0.000 A 
ATOM     14  C   UNL     1     -67.218 -48.805 -33.186  0.00  0.00    +0.000 A 
ATOM     15  C   UNL     1     -66.157 -46.728 -33.846  0.00  0.00    +0.000 A 
ATOM     16  C   UNL     1     -67.848 -48.912 -34.418  0.00  0.00    +0.000 A 
ATOM     17  C   UNL     1     -66.788 -46.830 -35.087  0.00  0.00    +0.000 A 
ATOM     18  C   UNL     1     -67.623 -47.914 -35.359  0.00  0.00    +0.000 A 
ENDROOT
BRANCH   5  19
ATOM     19  O   UNL     1     -62.021 -47.134 -27.844  0.00  0.00    +0.000 OA
ATOM     20  H   UNL     1     -62.170 -46.187 -27.669  0.00  0.00    +0.000 HD
ENDBRANCH   5  19
BRANCH  18  21
ATOM     21  O   UNL     1     -68.247 -48.018 -36.570  0.00  0.00    +0.000 OA
ATOM     22  H   UNL     1     -67.799 -47.425 -37.198  0.00  0.00    +0.000 HD
ENDBRANCH  18  21
TORSDOF 2
ENDMDL
