MODEL 1
REMARK VINA RESULT:      -6.0      0.000      0.000
REMARK  Name = 
REMARK  11 active torsions:
REMARK  status: ('A' for Active; 'I' for Inactive)
REMARK    1  A    between atoms: O_1  and  C_16
REMARK    2  A    between atoms: O_1  and  C_22
REMARK    3  A    between atoms: O_6  and  C_24
REMARK    4  A    between atoms: O_8  and  C_26
REMARK    5  A    between atoms: O_11  and  C_36
REMARK    6  A    between atoms: O_11  and  C_41
REMARK    7  A    between atoms: O_12  and  C_37
REMARK    8  A    between atoms: O_12  and  C_42
REMARK    9  A    between atoms: O_13  and  C_39
REMARK   10  A    between atoms: C_17  and  C_23
REMARK   11  A    between atoms: C_35  and  C_40
REMARK                            x       y       z     vdW  Elec       q    Type
REMARK                         _______ _______ _______ _____ _____    ______ ____
ROOT
ATOM      1  O   UNL     1     -59.678 -55.729 -17.175  0.00  0.00    +0.000 OA
ATOM      2  O   UNL     1     -59.604 -54.380 -15.322  0.00  0.00    +0.000 OA
ATOM      3  O   UNL     1     -66.835 -51.891 -19.366  0.00  0.00    +0.000 OA
ATOM      4  O   UNL     1     -66.659 -51.058 -17.109  0.00  0.00    +0.000 OA
ATOM      5  C   UNL     1     -61.766 -55.140 -17.986  0.00  0.00    +0.000 C 
ATOM      6  C   UNL     1     -61.310 -54.059 -17.025  0.00  0.00    +0.000 C 
ATOM      7  C   UNL     1     -62.661 -54.546 -19.066  0.00  0.00    +0.000 C 
ATOM      8  C   UNL     1     -62.476 -53.563 -16.171  0.00  0.00    +0.000 C 
ATOM      9  C   UNL     1     -63.716 -53.626 -18.453  0.00  0.00    +0.000 A 
ATOM     10  C   UNL     1     -63.614 -53.131 -17.111  0.00  0.00    +0.000 A 
ATOM     11  C   UNL     1     -60.441 -55.734 -18.393  0.00  0.00    +0.000 C 
ATOM     12  C   UNL     1     -60.139 -54.722 -16.364  0.00  0.00    +0.000 C 
ATOM     13  C   UNL     1     -64.801 -53.226 -19.256  0.00  0.00    +0.000 A 
ATOM     14  C   UNL     1     -64.596 -52.253 -16.610  0.00  0.00    +0.000 A 
ATOM     15  C   UNL     1     -65.736 -52.365 -18.721  0.00  0.00    +0.000 A 
ATOM     16  C   UNL     1     -65.636 -51.892 -17.437  0.00  0.00    +0.000 A 
ATOM     17  C   UNL     1     -67.417 -51.064 -18.336  0.00  0.00    +0.000 C 
ENDROOT
BRANCH   8  18
ATOM     18  C   UNL     1     -62.934 -54.533 -15.079  0.00  0.00    +0.000 A 
ATOM     19  C   UNL     1     -63.592 -55.743 -15.360  0.00  0.00    +0.000 A 
ATOM     20  C   UNL     1     -62.680 -54.218 -13.733  0.00  0.00    +0.000 A 
ATOM     21  C   UNL     1     -63.049 -55.093 -12.711  0.00  0.00    +0.000 A 
ATOM     22  C   UNL     1     -63.991 -56.629 -14.349  0.00  0.00    +0.000 A 
ATOM     23  C   UNL     1     -63.712 -56.292 -13.024  0.00  0.00    +0.000 A 
BRANCH  21  24
ATOM     24  O   UNL     1     -62.827 -54.890 -11.369  0.00  0.00    +0.000 OA
ATOM     25  C   UNL     1     -61.471 -54.952 -10.936  0.00  0.00    +0.000 C 
ENDBRANCH  21  24
BRANCH  22  26
ATOM     26  O   UNL     1     -64.613 -57.747 -14.835  0.00  0.00    +0.000 OA
ATOM     27  C   UNL     1     -63.912 -58.541 -15.781  0.00  0.00    +0.000 C 
ENDBRANCH  22  26
BRANCH  23  28
ATOM     28  O   UNL     1     -64.056 -57.110 -11.977  0.00  0.00    +0.000 OA
ATOM     29  H   UNL     1     -64.049 -56.530 -11.191  0.00  0.00    +0.000 HD
ENDBRANCH  23  28
ENDBRANCH   8  18
BRANCH   7  30
ATOM     30  O   UNL     1     -61.876 -53.739 -19.944  0.00  0.00    +0.000 OA
BRANCH  30  34
ATOM     31  O   UNL     1     -61.070 -55.212 -21.571  0.00  0.00    +0.000 OA
ATOM     32  O   UNL     1     -60.632 -54.885 -25.208  0.00  0.00    +0.000 OA
ATOM     33  O   UNL     1     -60.221 -57.129 -24.591  0.00  0.00    +0.000 OA
ATOM     34  C   UNL     1     -61.978 -54.138 -21.317  0.00  0.00    +0.000 C 
ATOM     35  C   UNL     1     -61.660 -52.890 -22.172  0.00  0.00    +0.000 C 
ATOM     36  C   UNL     1     -60.627 -54.468 -23.838  0.00  0.00    +0.000 C 
ATOM     37  C   UNL     1     -61.538 -53.254 -23.659  0.00  0.00    +0.000 C 
ATOM     38  C   UNL     1     -61.112 -55.603 -22.941  0.00  0.00    +0.000 C 
ATOM     39  C   UNL     1     -60.215 -56.809 -23.201  0.00  0.00    +0.000 C 
ATOM     40  C   UNL     1     -59.784 -56.024 -25.383  0.00  0.00    +0.000 C 
ATOM     41  C   UNL     1     -59.851 -56.436 -26.842  0.00  0.00    +0.000 C 
BRANCH  35  42
ATOM     42  O   UNL     1     -62.701 -51.916 -21.988  0.00  0.00    +0.000 OA
ATOM     43  H   UNL     1     -62.642 -51.631 -21.055  0.00  0.00    +0.000 HD
ENDBRANCH  35  42
BRANCH  37  44
ATOM     44  O   UNL     1     -60.980 -52.153 -24.394  0.00  0.00    +0.000 OA
ATOM     45  H   UNL     1     -60.846 -52.479 -25.304  0.00  0.00    +0.000 HD
ENDBRANCH  37  44
ENDBRANCH  30  34
ENDBRANCH   7  30
TORSDOF 8
ENDMDL
MODEL 2
REMARK VINA RESULT:      -5.9     45.856     52.453
REMARK  Name = 
REMARK  11 active torsions:
REMARK  status: ('A' for Active; 'I' for Inactive)
REMARK    1  A    between atoms: O_1  and  C_16
REMARK    2  A    between atoms: O_1  and  C_22
REMARK    3  A    between atoms: O_6  and  C_24
REMARK    4  A    between atoms: O_8  and  C_26
REMARK    5  A    between atoms: O_11  and  C_36
REMARK    6  A    between atoms: O_11  and  C_41
REMARK    7  A    between atoms: O_12  and  C_37
REMARK    8  A    between atoms: O_12  and  C_42
REMARK    9  A    between atoms: O_13  and  C_39
REMARK   10  A    between atoms: C_17  and  C_23
REMARK   11  A    between atoms: C_35  and  C_40
REMARK                            x       y       z     vdW  Elec       q    Type
REMARK                         _______ _______ _______ _____ _____    ______ ____
ROOT
ATOM      1  O   UNL     1     -64.277 -64.971 -67.305  0.00  0.00    +0.000 OA
ATOM      2  O   UNL     1     -64.185 -66.727 -68.776  0.00  0.00    +0.000 OA
ATOM      3  O   UNL     1     -66.222 -59.978 -73.789  0.00  0.00    +0.000 OA
ATOM      4  O   UNL     1     -65.537 -61.928 -75.032  0.00  0.00    +0.000 OA
ATOM      5  C   UNL     1     -64.555 -63.233 -68.811  0.00  0.00    +0.000 C 
ATOM      6  C   UNL     1     -64.918 -64.528 -69.511  0.00  0.00    +0.000 C 
ATOM      7  C   UNL     1     -65.366 -62.076 -69.382  0.00  0.00    +0.000 C 
ATOM      8  C   UNL     1     -64.413 -64.527 -70.953  0.00  0.00    +0.000 C 
ATOM      9  C   UNL     1     -65.353 -62.105 -70.909  0.00  0.00    +0.000 A 
ATOM     10  C   UNL     1     -64.945 -63.263 -71.650  0.00  0.00    +0.000 A 
ATOM     11  C   UNL     1     -64.768 -63.621 -67.370  0.00  0.00    +0.000 C 
ATOM     12  C   UNL     1     -64.392 -65.547 -68.545  0.00  0.00    +0.000 C 
ATOM     13  C   UNL     1     -65.796 -60.963 -71.603  0.00  0.00    +0.000 A 
ATOM     14  C   UNL     1     -64.991 -63.248 -73.059  0.00  0.00    +0.000 A 
ATOM     15  C   UNL     1     -65.823 -60.996 -72.980  0.00  0.00    +0.000 A 
ATOM     16  C   UNL     1     -65.433 -62.105 -73.688  0.00  0.00    +0.000 A 
ATOM     17  C   UNL     1     -66.036 -60.575 -75.089  0.00  0.00    +0.000 C 
ENDROOT
BRANCH   8  18
ATOM     18  C   UNL     1     -62.901 -64.707 -71.108  0.00  0.00    +0.000 A 
ATOM     19  C   UNL     1     -62.330 -65.634 -71.997  0.00  0.00    +0.000 A 
ATOM     20  C   UNL     1     -62.034 -63.908 -70.343  0.00  0.00    +0.000 A 
ATOM     21  C   UNL     1     -60.650 -64.017 -70.482  0.00  0.00    +0.000 A 
ATOM     22  C   UNL     1     -60.942 -65.777 -72.139  0.00  0.00    +0.000 A 
ATOM     23  C   UNL     1     -60.110 -64.959 -71.374  0.00  0.00    +0.000 A 
BRANCH  21  24
ATOM     24  O   UNL     1     -59.719 -63.269 -69.800  0.00  0.00    +0.000 OA
ATOM     25  C   UNL     1     -59.541 -63.585 -68.422  0.00  0.00    +0.000 C 
ENDBRANCH  21  24
BRANCH  22  26
ATOM     26  O   UNL     1     -60.595 -66.732 -73.056  0.00  0.00    +0.000 OA
ATOM     27  C   UNL     1     -61.502 -67.802 -73.280  0.00  0.00    +0.000 C 
ENDBRANCH  22  26
BRANCH  23  28
ATOM     28  O   UNL     1     -58.742 -65.025 -71.464  0.00  0.00    +0.000 OA
ATOM     29  H   UNL     1     -58.454 -65.429 -70.622  0.00  0.00    +0.000 HD
ENDBRANCH  23  28
ENDBRANCH   8  18
BRANCH   7  30
ATOM     30  O   UNL     1     -66.731 -62.209 -68.982  0.00  0.00    +0.000 OA
BRANCH  30  34
ATOM     31  O   UNL     1     -67.116 -61.440 -66.808  0.00  0.00    +0.000 OA
ATOM     32  O   UNL     1     -69.607 -59.124 -65.407  0.00  0.00    +0.000 OA
ATOM     33  O   UNL     1     -68.026 -59.647 -63.730  0.00  0.00    +0.000 OA
ATOM     34  C   UNL     1     -67.196 -61.105 -68.195  0.00  0.00    +0.000 C 
ATOM     35  C   UNL     1     -68.646 -60.814 -68.644  0.00  0.00    +0.000 C 
ATOM     36  C   UNL     1     -69.104 -60.162 -66.256  0.00  0.00    +0.000 C 
ATOM     37  C   UNL     1     -69.314 -59.783 -67.723  0.00  0.00    +0.000 C 
ATOM     38  C   UNL     1     -67.616 -60.380 -65.997  0.00  0.00    +0.000 C 
ATOM     39  C   UNL     1     -67.449 -60.691 -64.513  0.00  0.00    +0.000 C 
ATOM     40  C   UNL     1     -69.409 -59.470 -64.033  0.00  0.00    +0.000 C 
ATOM     41  C   UNL     1     -69.934 -58.326 -63.184  0.00  0.00    +0.000 C 
BRANCH  35  42
ATOM     42  O   UNL     1     -68.632 -60.329 -69.997  0.00  0.00    +0.000 OA
ATOM     43  H   UNL     1     -68.025 -59.564 -70.002  0.00  0.00    +0.000 HD
ENDBRANCH  35  42
BRANCH  37  44
ATOM     44  O   UNL     1     -70.727 -59.730 -67.981  0.00  0.00    +0.000 OA
ATOM     45  H   UNL     1     -71.019 -60.657 -68.063  0.00  0.00    +0.000 HD
ENDBRANCH  37  44
ENDBRANCH  30  34
ENDBRANCH   7  30
TORSDOF 8
ENDMDL
MODEL 3
REMARK VINA RESULT:      -5.9     30.567     36.698
REMARK  Name = 
REMARK  11 active torsions:
REMARK  status: ('A' for Active; 'I' for Inactive)
REMARK    1  A    between atoms: O_1  and  C_16
REMARK    2  A    between atoms: O_1  and  C_22
REMARK    3  A    between atoms: O_6  and  C_24
REMARK    4  A    between atoms: O_8  and  C_26
REMARK    5  A    between atoms: O_11  and  C_36
REMARK    6  A    between atoms: O_11  and  C_41
REMARK    7  A    between atoms: O_12  and  C_37
REMARK    8  A    between atoms: O_12  and  C_42
REMARK    9  A    between atoms: O_13  and  C_39
REMARK   10  A    between atoms: C_17  and  C_23
REMARK   11  A    between atoms: C_35  and  C_40
REMARK                            x       y       z     vdW  Elec       q    Type
REMARK                         _______ _______ _______ _____ _____    ______ ____
ROOT
ATOM      1  O   UNL     1     -65.636 -43.319 -53.721  0.00  0.00    +0.000 OA
ATOM      2  O   UNL     1     -67.150 -43.568 -52.017  0.00  0.00    +0.000 OA
ATOM      3  O   UNL     1     -64.897 -51.695 -53.944  0.00  0.00    +0.000 OA
ATOM      4  O   UNL     1     -66.098 -51.498 -51.861  0.00  0.00    +0.000 OA
ATOM      5  C   UNL     1     -64.940 -45.519 -53.930  0.00  0.00    +0.000 C 
ATOM      6  C   UNL     1     -66.258 -45.509 -53.179  0.00  0.00    +0.000 C 
ATOM      7  C   UNL     1     -64.798 -46.804 -54.735  0.00  0.00    +0.000 C 
ATOM      8  C   UNL     1     -66.247 -46.538 -52.050  0.00  0.00    +0.000 C 
ATOM      9  C   UNL     1     -65.158 -48.021 -53.884  0.00  0.00    +0.000 A 
ATOM     10  C   UNL     1     -65.871 -47.906 -52.646  0.00  0.00    +0.000 A 
ATOM     11  C   UNL     1     -65.028 -44.209 -54.672  0.00  0.00    +0.000 C 
ATOM     12  C   UNL     1     -66.404 -44.053 -52.851  0.00  0.00    +0.000 C 
ATOM     13  C   UNL     1     -64.807 -49.298 -54.362  0.00  0.00    +0.000 A 
ATOM     14  C   UNL     1     -66.213 -49.065 -51.921  0.00  0.00    +0.000 A 
ATOM     15  C   UNL     1     -65.163 -50.402 -53.618  0.00  0.00    +0.000 A 
ATOM     16  C   UNL     1     -65.847 -50.290 -52.434  0.00  0.00    +0.000 A 
ATOM     17  C   UNL     1     -65.491 -52.385 -52.824  0.00  0.00    +0.000 C 
ENDROOT
BRANCH   8  18
ATOM     18  C   UNL     1     -65.396 -46.157 -50.837  0.00  0.00    +0.000 A 
ATOM     19  C   UNL     1     -64.001 -46.329 -50.799  0.00  0.00    +0.000 A 
ATOM     20  C   UNL     1     -66.021 -45.597 -49.710  0.00  0.00    +0.000 A 
ATOM     21  C   UNL     1     -65.274 -45.202 -48.599  0.00  0.00    +0.000 A 
ATOM     22  C   UNL     1     -63.232 -45.959 -49.686  0.00  0.00    +0.000 A 
ATOM     23  C   UNL     1     -63.883 -45.394 -48.589  0.00  0.00    +0.000 A 
BRANCH  21  24
ATOM     24  O   UNL     1     -65.785 -44.626 -47.459  0.00  0.00    +0.000 OA
ATOM     25  C   UNL     1     -66.793 -45.365 -46.775  0.00  0.00    +0.000 C 
ENDBRANCH  21  24
BRANCH  22  26
ATOM     26  O   UNL     1     -61.896 -46.209 -49.854  0.00  0.00    +0.000 OA
ATOM     27  C   UNL     1     -61.240 -45.608 -50.961  0.00  0.00    +0.000 C 
ENDBRANCH  22  26
BRANCH  23  28
ATOM     28  O   UNL     1     -63.202 -44.993 -47.467  0.00  0.00    +0.000 OA
ATOM     29  H   UNL     1     -62.356 -45.482 -47.497  0.00  0.00    +0.000 HD
ENDBRANCH  23  28
ENDBRANCH   8  18
BRANCH   7  30
ATOM     30  O   UNL     1     -65.715 -46.784 -55.829  0.00  0.00    +0.000 OA
BRANCH  30  34
ATOM     31  O   UNL     1     -63.668 -46.615 -56.946  0.00  0.00    +0.000 OA
ATOM     32  O   UNL     1     -62.778 -45.470 -60.326  0.00  0.00    +0.000 OA
ATOM     33  O   UNL     1     -60.862 -46.410 -59.312  0.00  0.00    +0.000 OA
ATOM     34  C   UNL     1     -65.068 -46.850 -57.106  0.00  0.00    +0.000 C 
ATOM     35  C   UNL     1     -65.740 -45.786 -58.005  0.00  0.00    +0.000 C 
ATOM     36  C   UNL     1     -63.485 -45.475 -59.081  0.00  0.00    +0.000 C 
ATOM     37  C   UNL     1     -64.986 -45.627 -59.333  0.00  0.00    +0.000 C 
ATOM     38  C   UNL     1     -63.000 -46.626 -58.204  0.00  0.00    +0.000 C 
ATOM     39  C   UNL     1     -61.492 -46.470 -58.034  0.00  0.00    +0.000 C 
ATOM     40  C   UNL     1     -61.373 -45.333 -60.097  0.00  0.00    +0.000 C 
ATOM     41  C   UNL     1     -60.676 -45.361 -61.445  0.00  0.00    +0.000 C 
BRANCH  35  42
ATOM     42  O   UNL     1     -67.101 -46.173 -58.255  0.00  0.00    +0.000 OA
ATOM     43  H   UNL     1     -67.355 -45.737 -59.092  0.00  0.00    +0.000 HD
ENDBRANCH  35  42
BRANCH  37  44
ATOM     44  O   UNL     1     -65.450 -44.459 -60.030  0.00  0.00    +0.000 OA
ATOM     45  H   UNL     1     -66.422 -44.537 -60.064  0.00  0.00    +0.000 HD
ENDBRANCH  37  44
ENDBRANCH  30  34
ENDBRANCH   7  30
TORSDOF 8
ENDMDL
MODEL 4
REMARK VINA RESULT:      -5.8     15.001     19.470
REMARK  Name = 
REMARK  11 active torsions:
REMARK  status: ('A' for Active; 'I' for Inactive)
REMARK    1  A    between atoms: O_1  and  C_16
REMARK    2  A    between atoms: O_1  and  C_22
REMARK    3  A    between atoms: O_6  and  C_24
REMARK    4  A    between atoms: O_8  and  C_26
REMARK    5  A    between atoms: O_11  and  C_36
REMARK    6  A    between atoms: O_11  and  C_41
REMARK    7  A    between atoms: O_12  and  C_37
REMARK    8  A    between atoms: O_12  and  C_42
REMARK    9  A    between atoms: O_13  and  C_39
REMARK   10  A    between atoms: C_17  and  C_23
REMARK   11  A    between atoms: C_35  and  C_40
REMARK                            x       y       z     vdW  Elec       q    Type
REMARK                         _______ _______ _______ _____ _____    ______ ____
ROOT
ATOM      1  O   UNL     1     -66.982 -59.101 -34.523  0.00  0.00    +0.000 OA
ATOM      2  O   UNL     1     -67.310 -58.035 -32.520  0.00  0.00    +0.000 OA
ATOM      3  O   UNL     1     -72.985 -54.214 -37.815  0.00  0.00    +0.000 OA
ATOM      4  O   UNL     1     -73.362 -53.723 -35.484  0.00  0.00    +0.000 OA
ATOM      5  C   UNL     1     -68.726 -58.174 -35.733  0.00  0.00    +0.000 C 
ATOM      6  C   UNL     1     -68.467 -57.293 -34.526  0.00  0.00    +0.000 C 
ATOM      7  C   UNL     1     -69.252 -57.341 -36.895  0.00  0.00    +0.000 C 
ATOM      8  C   UNL     1     -69.780 -56.790 -33.929  0.00  0.00    +0.000 C 
ATOM      9  C   UNL     1     -70.362 -56.400 -36.430  0.00  0.00    +0.000 A 
ATOM     10  C   UNL     1     -70.589 -56.108 -35.045  0.00  0.00    +0.000 A 
ATOM     11  C   UNL     1     -67.388 -58.854 -35.879  0.00  0.00    +0.000 C 
ATOM     12  C   UNL     1     -67.569 -58.169 -33.704  0.00  0.00    +0.000 C 
ATOM     13  C   UNL     1     -71.159 -55.774 -37.408  0.00  0.00    +0.000 A 
ATOM     14  C   UNL     1     -71.603 -55.200 -34.675  0.00  0.00    +0.000 A 
ATOM     15  C   UNL     1     -72.137 -54.894 -36.997  0.00  0.00    +0.000 A 
ATOM     16  C   UNL     1     -72.352 -54.615 -35.671  0.00  0.00    +0.000 A 
ATOM     17  C   UNL     1     -73.760 -53.475 -36.848  0.00  0.00    +0.000 C 
ENDROOT
BRANCH   8  18
ATOM     18  C   UNL     1     -70.585 -57.841 -33.160  0.00  0.00    +0.000 A 
ATOM     19  C   UNL     1     -71.119 -58.990 -33.771  0.00  0.00    +0.000 A 
ATOM     20  C   UNL     1     -70.795 -57.670 -31.782  0.00  0.00    +0.000 A 
ATOM     21  C   UNL     1     -71.491 -58.625 -31.040  0.00  0.00    +0.000 A 
ATOM     22  C   UNL     1     -71.841 -59.952 -33.051  0.00  0.00    +0.000 A 
ATOM     23  C   UNL     1     -72.020 -59.758 -31.681  0.00  0.00    +0.000 A 
BRANCH  21  24
ATOM     24  O   UNL     1     -71.731 -58.564 -29.686  0.00  0.00    +0.000 OA
ATOM     25  C   UNL     1     -71.428 -57.327 -29.047  0.00  0.00    +0.000 C 
ENDBRANCH  21  24
BRANCH  22  26
ATOM     26  O   UNL     1     -72.271 -60.990 -33.832  0.00  0.00    +0.000 OA
ATOM     27  C   UNL     1     -71.672 -61.158 -35.108  0.00  0.00    +0.000 C 
ENDBRANCH  22  26
BRANCH  23  28
ATOM     28  O   UNL     1     -72.701 -60.659 -30.901  0.00  0.00    +0.000 OA
ATOM     29  H   UNL     1     -73.622 -60.628 -31.226  0.00  0.00    +0.000 HD
ENDBRANCH  23  28
ENDBRANCH   8  18
BRANCH   7  30
ATOM     30  O   UNL     1     -68.202 -56.516 -37.402  0.00  0.00    +0.000 OA
BRANCH  30  34
ATOM     31  O   UNL     1     -67.538 -57.526 -39.403  0.00  0.00    +0.000 OA
ATOM     32  O   UNL     1     -66.582 -56.146 -42.675  0.00  0.00    +0.000 OA
ATOM     33  O   UNL     1     -66.752 -58.496 -42.861  0.00  0.00    +0.000 OA
ATOM     34  C   UNL     1     -68.214 -56.405 -38.830  0.00  0.00    +0.000 C 
ATOM     35  C   UNL     1     -67.526 -55.066 -39.183  0.00  0.00    +0.000 C 
ATOM     36  C   UNL     1     -66.660 -56.216 -41.247  0.00  0.00    +0.000 C 
ATOM     37  C   UNL     1     -67.300 -54.941 -40.696  0.00  0.00    +0.000 C 
ATOM     38  C   UNL     1     -67.490 -57.424 -40.823  0.00  0.00    +0.000 C 
ATOM     39  C   UNL     1     -66.853 -58.661 -41.448  0.00  0.00    +0.000 C 
ATOM     40  C   UNL     1     -65.989 -57.338 -43.199  0.00  0.00    +0.000 C 
ATOM     41  C   UNL     1     -65.958 -57.219 -44.711  0.00  0.00    +0.000 C 
BRANCH  35  42
ATOM     42  O   UNL     1     -68.344 -53.980 -38.717  0.00  0.00    +0.000 OA
ATOM     43  H   UNL     1     -69.001 -53.816 -39.421  0.00  0.00    +0.000 HD
ENDBRANCH  35  42
BRANCH  37  44
ATOM     44  O   UNL     1     -66.426 -53.836 -40.977  0.00  0.00    +0.000 OA
ATOM     45  H   UNL     1     -66.883 -53.297 -41.650  0.00  0.00    +0.000 HD
ENDBRANCH  37  44
ENDBRANCH  30  34
ENDBRANCH   7  30
TORSDOF 8
ENDMDL
MODEL 5
REMARK VINA RESULT:      -5.8      2.544      5.894
REMARK  Name = 
REMARK  11 active torsions:
REMARK  status: ('A' for Active; 'I' for Inactive)
REMARK    1  A    between atoms: O_1  and  C_16
REMARK    2  A    between atoms: O_1  and  C_22
REMARK    3  A    between atoms: O_6  and  C_24
REMARK    4  A    between atoms: O_8  and  C_26
REMARK    5  A    between atoms: O_11  and  C_36
REMARK    6  A    between atoms: O_11  and  C_41
REMARK    7  A    between atoms: O_12  and  C_37
REMARK    8  A    between atoms: O_12  and  C_42
REMARK    9  A    between atoms: O_13  and  C_39
REMARK   10  A    between atoms: C_17  and  C_23
REMARK   11  A    between atoms: C_35  and  C_40
REMARK                            x       y       z     vdW  Elec       q    Type
REMARK                         _______ _______ _______ _____ _____    ______ ____
ROOT
ATOM      1  O   UNL     1     -65.234 -48.979 -20.481  0.00  0.00    +0.000 OA
ATOM      2  O   UNL     1     -67.390 -49.322 -19.781  0.00  0.00    +0.000 OA
ATOM      3  O   UNL     1     -63.088 -56.073 -16.504  0.00  0.00    +0.000 OA
ATOM      4  O   UNL     1     -65.295 -55.796 -15.573  0.00  0.00    +0.000 OA
ATOM      5  C   UNL     1     -64.185 -50.685 -19.318  0.00  0.00    +0.000 C 
ATOM      6  C   UNL     1     -65.670 -50.989 -19.366  0.00  0.00    +0.000 C 
ATOM      7  C   UNL     1     -63.379 -51.978 -19.279  0.00  0.00    +0.000 C 
ATOM      8  C   UNL     1     -66.149 -51.570 -18.037  0.00  0.00    +0.000 C 
ATOM      9  C   UNL     1     -63.957 -52.947 -18.249  0.00  0.00    +0.000 A 
ATOM     10  C   UNL     1     -65.268 -52.783 -17.693  0.00  0.00    +0.000 A 
ATOM     11  C   UNL     1     -64.042 -49.782 -20.517  0.00  0.00    +0.000 C 
ATOM     12  C   UNL     1     -66.227 -49.683 -19.846  0.00  0.00    +0.000 C 
ATOM     13  C   UNL     1     -63.180 -54.058 -17.868  0.00  0.00    +0.000 A 
ATOM     14  C   UNL     1     -65.767 -53.731 -16.775  0.00  0.00    +0.000 A 
ATOM     15  C   UNL     1     -63.711 -54.957 -16.968  0.00  0.00    +0.000 A 
ATOM     16  C   UNL     1     -64.966 -54.799 -16.439  0.00  0.00    +0.000 A 
ATOM     17  C   UNL     1     -64.098 -56.599 -15.618  0.00  0.00    +0.000 C 
ENDROOT
BRANCH   8  18
ATOM     18  C   UNL     1     -66.254 -50.560 -16.892  0.00  0.00    +0.000 A 
ATOM     19  C   UNL     1     -67.480 -50.031 -16.451  0.00  0.00    +0.000 A 
ATOM     20  C   UNL     1     -65.083 -50.144 -16.236  0.00  0.00    +0.000 A 
ATOM     21  C   UNL     1     -65.142 -49.252 -15.164  0.00  0.00    +0.000 A 
ATOM     22  C   UNL     1     -67.562 -49.118 -15.390  0.00  0.00    +0.000 A 
ATOM     23  C   UNL     1     -66.381 -48.736 -14.752  0.00  0.00    +0.000 A 
BRANCH  21  24
ATOM     24  O   UNL     1     -64.060 -48.801 -14.443  0.00  0.00    +0.000 OA
ATOM     25  C   UNL     1     -63.357 -49.779 -13.681  0.00  0.00    +0.000 C 
ENDBRANCH  21  24
BRANCH  22  26
ATOM     26  O   UNL     1     -68.846 -48.729 -15.118  0.00  0.00    +0.000 OA
ATOM     27  C   UNL     1     -69.675 -48.356 -16.210  0.00  0.00    +0.000 C 
ENDBRANCH  22  26
BRANCH  23  28
ATOM     28  O   UNL     1     -66.376 -47.858 -13.696  0.00  0.00    +0.000 OA
ATOM     29  H   UNL     1     -65.561 -47.332 -13.811  0.00  0.00    +0.000 HD
ENDBRANCH  23  28
ENDBRANCH   8  18
BRANCH   7  30
ATOM     30  O   UNL     1     -63.465 -52.630 -20.547  0.00  0.00    +0.000 OA
BRANCH  30  34
ATOM     31  O   UNL     1     -62.285 -51.676 -22.325  0.00  0.00    +0.000 OA
ATOM     32  O   UNL     1     -59.711 -53.011 -24.588  0.00  0.00    +0.000 OA
ATOM     33  O   UNL     1     -59.919 -50.686 -24.959  0.00  0.00    +0.000 OA
ATOM     34  C   UNL     1     -62.225 -52.630 -21.263  0.00  0.00    +0.000 C 
ATOM     35  C   UNL     1     -62.008 -54.070 -21.784  0.00  0.00    +0.000 C 
ATOM     36  C   UNL     1     -60.900 -53.027 -23.789  0.00  0.00    +0.000 C 
ATOM     37  C   UNL     1     -60.810 -54.138 -22.742  0.00  0.00    +0.000 C 
ATOM     38  C   UNL     1     -61.083 -51.684 -23.089  0.00  0.00    +0.000 C 
ATOM     39  C   UNL     1     -61.102 -50.604 -24.166  0.00  0.00    +0.000 C 
ATOM     40  C   UNL     1     -59.787 -51.971 -25.568  0.00  0.00    +0.000 C 
ATOM     41  C   UNL     1     -58.494 -51.984 -26.362  0.00  0.00    +0.000 C 
BRANCH  35  42
ATOM     42  O   UNL     1     -61.794 -54.948 -20.666  0.00  0.00    +0.000 OA
ATOM     43  H   UNL     1     -61.794 -54.378 -19.873  0.00  0.00    +0.000 HD
ENDBRANCH  35  42
BRANCH  37  44
ATOM     44  O   UNL     1     -60.790 -55.403 -23.422  0.00  0.00    +0.000 OA
ATOM     45  H   UNL     1     -59.999 -55.388 -23.994  0.00  0.00    +0.000 HD
ENDBRANCH  37  44
ENDBRANCH  30  34
ENDBRANCH   7  30
TORSDOF 8
ENDMDL
MODEL 6
REMARK VINA RESULT:      -5.8     46.159     53.389
REMARK  Name = 
REMARK  11 active torsions:
REMARK  status: ('A' for Active; 'I' for Inactive)
REMARK    1  A    between atoms: O_1  and  C_16
REMARK    2  A    between atoms: O_1  and  C_22
REMARK    3  A    between atoms: O_6  and  C_24
REMARK    4  A    between atoms: O_8  and  C_26
REMARK    5  A    between atoms: O_11  and  C_36
REMARK    6  A    between atoms: O_11  and  C_41
REMARK    7  A    between atoms: O_12  and  C_37
REMARK    8  A    between atoms: O_12  and  C_42
REMARK    9  A    between atoms: O_13  and  C_39
REMARK   10  A    between atoms: C_17  and  C_23
REMARK   11  A    between atoms: C_35  and  C_40
REMARK                            x       y       z     vdW  Elec       q    Type
REMARK                         _______ _______ _______ _____ _____    ______ ____
ROOT
ATOM      1  O   UNL     1     -68.818 -59.170 -72.145  0.00  0.00    +0.000 OA
ATOM      2  O   UNL     1     -67.114 -58.529 -73.540  0.00  0.00    +0.000 OA
ATOM      3  O   UNL     1     -63.484 -64.585 -68.543  0.00  0.00    +0.000 OA
ATOM      4  O   UNL     1     -62.161 -64.014 -70.477  0.00  0.00    +0.000 OA
ATOM      5  C   UNL     1     -67.783 -60.948 -71.080  0.00  0.00    +0.000 C 
ATOM      6  C   UNL     1     -66.709 -60.089 -71.720  0.00  0.00    +0.000 C 
ATOM      7  C   UNL     1     -67.245 -61.624 -69.826  0.00  0.00    +0.000 C 
ATOM      8  C   UNL     1     -65.609 -60.958 -72.329  0.00  0.00    +0.000 C 
ATOM      9  C   UNL     1     -65.876 -62.250 -70.090  0.00  0.00    +0.000 A 
ATOM     10  C   UNL     1     -65.089 -61.913 -71.240  0.00  0.00    +0.000 A 
ATOM     11  C   UNL     1     -68.898 -59.944 -70.937  0.00  0.00    +0.000 C 
ATOM     12  C   UNL     1     -67.526 -59.201 -72.609  0.00  0.00    +0.000 C 
ATOM     13  C   UNL     1     -65.363 -63.159 -69.145  0.00  0.00    +0.000 A 
ATOM     14  C   UNL     1     -63.815 -62.491 -71.414  0.00  0.00    +0.000 A 
ATOM     15  C   UNL     1     -64.113 -63.698 -69.359  0.00  0.00    +0.000 A 
ATOM     16  C   UNL     1     -63.360 -63.373 -70.459  0.00  0.00    +0.000 A 
ATOM     17  C   UNL     1     -62.247 -64.783 -69.260  0.00  0.00    +0.000 C 
ENDROOT
BRANCH   8  18
ATOM     18  C   UNL     1     -65.997 -61.677 -73.623  0.00  0.00    +0.000 A 
ATOM     19  C   UNL     1     -66.947 -62.714 -73.664  0.00  0.00    +0.000 A 
ATOM     20  C   UNL     1     -65.396 -61.286 -74.831  0.00  0.00    +0.000 A 
ATOM     21  C   UNL     1     -65.751 -61.893 -76.036  0.00  0.00    +0.000 A 
ATOM     22  C   UNL     1     -67.304 -63.353 -74.860  0.00  0.00    +0.000 A 
ATOM     23  C   UNL     1     -66.697 -62.931 -76.044  0.00  0.00    +0.000 A 
BRANCH  21  24
ATOM     24  O   UNL     1     -65.240 -61.569 -77.272  0.00  0.00    +0.000 OA
ATOM     25  C   UNL     1     -64.907 -60.199 -77.479  0.00  0.00    +0.000 C 
ENDBRANCH  21  24
BRANCH  22  26
ATOM     26  O   UNL     1     -68.245 -64.331 -74.682  0.00  0.00    +0.000 OA
ATOM     27  C   UNL     1     -67.793 -65.661 -74.474  0.00  0.00    +0.000 C 
ENDBRANCH  22  26
BRANCH  23  28
ATOM     28  O   UNL     1     -67.002 -63.494 -77.258  0.00  0.00    +0.000 OA
ATOM     29  H   UNL     1     -66.357 -64.220 -77.368  0.00  0.00    +0.000 HD
ENDBRANCH  23  28
ENDBRANCH   8  18
BRANCH   7  30
ATOM     30  O   UNL     1     -67.056 -60.647 -68.802  0.00  0.00    +0.000 OA
BRANCH  30  34
ATOM     31  O   UNL     1     -69.085 -60.586 -67.643  0.00  0.00    +0.000 OA
ATOM     32  O   UNL     1     -69.885 -60.287 -64.065  0.00  0.00    +0.000 OA
ATOM     33  O   UNL     1     -71.875 -60.747 -65.254  0.00  0.00    +0.000 OA
ATOM     34  C   UNL     1     -67.715 -60.984 -67.575  0.00  0.00    +0.000 C 
ATOM     35  C   UNL     1     -66.952 -60.259 -66.442  0.00  0.00    +0.000 C 
ATOM     36  C   UNL     1     -69.173 -60.033 -65.281  0.00  0.00    +0.000 C 
ATOM     37  C   UNL     1     -67.696 -60.384 -65.105  0.00  0.00    +0.000 C 
ATOM     38  C   UNL     1     -69.760 -60.864 -66.419  0.00  0.00    +0.000 C 
ATOM     39  C   UNL     1     -71.245 -60.529 -66.515  0.00  0.00    +0.000 C 
ATOM     40  C   UNL     1     -71.270 -59.965 -64.224  0.00  0.00    +0.000 C 
ATOM     41  C   UNL     1     -71.975 -60.281 -62.918  0.00  0.00    +0.000 C 
BRANCH  35  42
ATOM     42  O   UNL     1     -65.634 -60.823 -66.326  0.00  0.00    +0.000 OA
ATOM     43  H   UNL     1     -65.546 -61.456 -67.065  0.00  0.00    +0.000 HD
ENDBRANCH  35  42
BRANCH  37  44
ATOM     44  O   UNL     1     -67.128 -59.488 -64.136  0.00  0.00    +0.000 OA
ATOM     45  H   UNL     1     -67.749 -58.738 -64.068  0.00  0.00    +0.000 HD
ENDBRANCH  37  44
ENDBRANCH  30  34
ENDBRANCH   7  30
TORSDOF 8
ENDMDL
MODEL 7
REMARK VINA RESULT:      -5.7      2.063      3.630
REMARK  Name = 
REMARK  11 active torsions:
REMARK  status: ('A' for Active; 'I' for Inactive)
REMARK    1  A    between atoms: O_1  and  C_16
REMARK    2  A    between atoms: O_1  and  C_22
REMARK    3  A    between atoms: O_6  and  C_24
REMARK    4  A    between atoms: O_8  and  C_26
REMARK    5  A    between atoms: O_11  and  C_36
REMARK    6  A    between atoms: O_11  and  C_41
REMARK    7  A    between atoms: O_12  and  C_37
REMARK    8  A    between atoms: O_12  and  C_42
REMARK    9  A    between atoms: O_13  and  C_39
REMARK   10  A    between atoms: C_17  and  C_23
REMARK   11  A    between atoms: C_35  and  C_40
REMARK                            x       y       z     vdW  Elec       q    Type
REMARK                         _______ _______ _______ _____ _____    ______ ____
ROOT
ATOM      1  O   UNL     1     -59.454 -57.983 -15.529  0.00  0.00    +0.000 OA
ATOM      2  O   UNL     1     -60.290 -57.341 -13.493  0.00  0.00    +0.000 OA
ATOM      3  O   UNL     1     -65.179 -53.002 -19.159  0.00  0.00    +0.000 OA
ATOM      4  O   UNL     1     -66.065 -52.989 -16.915  0.00  0.00    +0.000 OA
ATOM      5  C   UNL     1     -61.013 -56.970 -16.911  0.00  0.00    +0.000 C 
ATOM      6  C   UNL     1     -61.098 -56.317 -15.545  0.00  0.00    +0.000 C 
ATOM      7  C   UNL     1     -61.384 -55.972 -18.000  0.00  0.00    +0.000 C 
ATOM      8  C   UNL     1     -62.551 -56.031 -15.169  0.00  0.00    +0.000 C 
ATOM      9  C   UNL     1     -62.661 -55.217 -17.633  0.00  0.00    +0.000 A 
ATOM     10  C   UNL     1     -63.191 -55.209 -16.301  0.00  0.00    +0.000 A 
ATOM     11  C   UNL     1     -59.606 -57.512 -16.878  0.00  0.00    +0.000 C 
ATOM     12  C   UNL     1     -60.291 -57.266 -14.710  0.00  0.00    +0.000 C 
ATOM     13  C   UNL     1     -63.311 -54.476 -18.638  0.00  0.00    +0.000 A 
ATOM     14  C   UNL     1     -64.351 -54.463 -16.009  0.00  0.00    +0.000 A 
ATOM     15  C   UNL     1     -64.442 -53.762 -18.305  0.00  0.00    +0.000 A 
ATOM     16  C   UNL     1     -64.946 -53.755 -17.029  0.00  0.00    +0.000 A 
ATOM     17  C   UNL     1     -66.208 -52.516 -18.271  0.00  0.00    +0.000 C 
ENDROOT
BRANCH   8  18
ATOM     18  C   UNL     1     -63.372 -57.264 -14.782  0.00  0.00    +0.000 A 
ATOM     19  C   UNL     1     -63.800 -57.514 -13.466  0.00  0.00    +0.000 A 
ATOM     20  C   UNL     1     -63.732 -58.187 -15.779  0.00  0.00    +0.000 A 
ATOM     21  C   UNL     1     -64.511 -59.303 -15.472  0.00  0.00    +0.000 A 
ATOM     22  C   UNL     1     -64.565 -58.640 -13.131  0.00  0.00    +0.000 A 
ATOM     23  C   UNL     1     -64.916 -59.530 -14.146  0.00  0.00    +0.000 A 
BRANCH  21  24
ATOM     24  O   UNL     1     -64.935 -60.252 -16.375  0.00  0.00    +0.000 OA
ATOM     25  C   UNL     1     -63.978 -61.240 -16.749  0.00  0.00    +0.000 C 
ENDBRANCH  21  24
BRANCH  22  26
ATOM     26  O   UNL     1     -64.878 -58.694 -11.799  0.00  0.00    +0.000 OA
ATOM     27  C   UNL     1     -64.030 -59.449 -10.945  0.00  0.00    +0.000 C 
ENDBRANCH  22  26
BRANCH  23  28
ATOM     28  O   UNL     1     -65.675 -60.647 -13.905  0.00  0.00    +0.000 OA
ATOM     29  H   UNL     1     -65.176 -61.150 -13.232  0.00  0.00    +0.000 HD
ENDBRANCH  23  28
ENDBRANCH   8  18
BRANCH   7  30
ATOM     30  O   UNL     1     -60.352 -54.993 -18.120  0.00  0.00    +0.000 OA
BRANCH  30  34
ATOM     31  O   UNL     1     -60.987 -55.121 -20.367  0.00  0.00    +0.000 OA
ATOM     32  O   UNL     1     -59.098 -55.853 -23.436  0.00  0.00    +0.000 OA
ATOM     33  O   UNL     1     -61.278 -55.159 -24.032  0.00  0.00    +0.000 OA
ATOM     34  C   UNL     1     -59.922 -54.792 -19.473  0.00  0.00    +0.000 C 
ATOM     35  C   UNL     1     -58.682 -55.690 -19.687  0.00  0.00    +0.000 C 
ATOM     36  C   UNL     1     -59.473 -55.975 -22.060  0.00  0.00    +0.000 C 
ATOM     37  C   UNL     1     -58.262 -55.711 -21.164  0.00  0.00    +0.000 C 
ATOM     38  C   UNL     1     -60.579 -54.978 -21.724  0.00  0.00    +0.000 C 
ATOM     39  C   UNL     1     -61.736 -55.236 -22.683  0.00  0.00    +0.000 C 
ATOM     40  C   UNL     1     -60.228 -56.093 -24.281  0.00  0.00    +0.000 C 
ATOM     41  C   UNL     1     -59.779 -55.923 -25.721  0.00  0.00    +0.000 C 
BRANCH  35  42
ATOM     42  O   UNL     1     -57.601 -55.201 -18.875  0.00  0.00    +0.000 OA
ATOM     43  H   UNL     1     -58.002 -54.929 -18.028  0.00  0.00    +0.000 HD
ENDBRANCH  35  42
BRANCH  37  44
ATOM     44  O   UNL     1     -57.295 -56.749 -21.390  0.00  0.00    +0.000 OA
ATOM     45  H   UNL     1     -57.794 -57.507 -21.749  0.00  0.00    +0.000 HD
ENDBRANCH  37  44
ENDBRANCH  30  34
ENDBRANCH   7  30
TORSDOF 8
ENDMDL
MODEL 8
REMARK VINA RESULT:      -5.7     30.974     36.710
REMARK  Name = 
REMARK  11 active torsions:
REMARK  status: ('A' for Active; 'I' for Inactive)
REMARK    1  A    between atoms: O_1  and  C_16
REMARK    2  A    between atoms: O_1  and  C_22
REMARK    3  A    between atoms: O_6  and  C_24
REMARK    4  A    between atoms: O_8  and  C_26
REMARK    5  A    between atoms: O_11  and  C_36
REMARK    6  A    between atoms: O_11  and  C_41
REMARK    7  A    between atoms: O_12  and  C_37
REMARK    8  A    between atoms: O_12  and  C_42
REMARK    9  A    between atoms: O_13  and  C_39
REMARK   10  A    between atoms: C_17  and  C_23
REMARK   11  A    between atoms: C_35  and  C_40
REMARK                            x       y       z     vdW  Elec       q    Type
REMARK                         _______ _______ _______ _____ _____    ______ ____
ROOT
ATOM      1  O   UNL     1     -65.536 -43.190 -53.657  0.00  0.00    +0.000 OA
ATOM      2  O   UNL     1     -67.034 -43.435 -51.938  0.00  0.00    +0.000 OA
ATOM      3  O   UNL     1     -64.897 -51.572 -53.950  0.00  0.00    +0.000 OA
ATOM      4  O   UNL     1     -66.072 -51.377 -51.853  0.00  0.00    +0.000 OA
ATOM      5  C   UNL     1     -64.868 -45.396 -53.891  0.00  0.00    +0.000 C 
ATOM      6  C   UNL     1     -66.177 -45.377 -53.125  0.00  0.00    +0.000 C 
ATOM      7  C   UNL     1     -64.750 -46.677 -54.707  0.00  0.00    +0.000 C 
ATOM      8  C   UNL     1     -66.166 -46.415 -52.003  0.00  0.00    +0.000 C 
ATOM      9  C   UNL     1     -65.115 -47.896 -53.861  0.00  0.00    +0.000 A 
ATOM     10  C   UNL     1     -65.812 -47.782 -52.613  0.00  0.00    +0.000 A 
ATOM     11  C   UNL     1     -64.950 -44.080 -54.622  0.00  0.00    +0.000 C 
ATOM     12  C   UNL     1     -66.303 -43.922 -52.784  0.00  0.00    +0.000 C 
ATOM     13  C   UNL     1     -64.784 -49.173 -54.352  0.00  0.00    +0.000 A 
ATOM     14  C   UNL     1     -66.159 -48.943 -51.893  0.00  0.00    +0.000 A 
ATOM     15  C   UNL     1     -65.144 -50.279 -53.612  0.00  0.00    +0.000 A 
ATOM     16  C   UNL     1     -65.813 -50.167 -52.419  0.00  0.00    +0.000 A 
ATOM     17  C   UNL     1     -65.486 -52.263 -52.829  0.00  0.00    +0.000 C 
ENDROOT
BRANCH   8  18
ATOM     18  C   UNL     1     -65.296 -46.052 -50.797  0.00  0.00    +0.000 A 
ATOM     19  C   UNL     1     -65.833 -45.611 -49.574  0.00  0.00    +0.000 A 
ATOM     20  C   UNL     1     -63.899 -46.172 -50.899  0.00  0.00    +0.000 A 
ATOM     21  C   UNL     1     -63.075 -45.885 -49.810  0.00  0.00    +0.000 A 
ATOM     22  C   UNL     1     -65.023 -45.297 -48.473  0.00  0.00    +0.000 A 
ATOM     23  C   UNL     1     -63.642 -45.440 -48.603  0.00  0.00    +0.000 A 
BRANCH  21  24
ATOM     24  O   UNL     1     -61.704 -45.992 -49.798  0.00  0.00    +0.000 OA
ATOM     25  C   UNL     1     -61.026 -45.546 -50.970  0.00  0.00    +0.000 C 
ENDBRANCH  21  24
BRANCH  22  26
ATOM     26  O   UNL     1     -65.743 -44.891 -47.382  0.00  0.00    +0.000 OA
ATOM     27  C   UNL     1     -67.119 -45.234 -47.325  0.00  0.00    +0.000 C 
ENDBRANCH  22  26
BRANCH  23  28
ATOM     28  O   UNL     1     -62.781 -45.168 -47.569  0.00  0.00    +0.000 OA
ATOM     29  H   UNL     1     -63.136 -45.667 -46.808  0.00  0.00    +0.000 HD
ENDBRANCH  23  28
ENDBRANCH   8  18
BRANCH   7  30
ATOM     30  O   UNL     1     -65.680 -46.638 -55.790  0.00  0.00    +0.000 OA
BRANCH  30  34
ATOM     31  O   UNL     1     -63.641 -46.534 -56.929  0.00  0.00    +0.000 OA
ATOM     32  O   UNL     1     -62.752 -45.410 -60.317  0.00  0.00    +0.000 OA
ATOM     33  O   UNL     1     -60.856 -46.415 -59.327  0.00  0.00    +0.000 OA
ATOM     34  C   UNL     1     -65.050 -46.723 -57.074  0.00  0.00    +0.000 C 
ATOM     35  C   UNL     1     -65.696 -45.635 -57.963  0.00  0.00    +0.000 C 
ATOM     36  C   UNL     1     -63.445 -45.396 -59.064  0.00  0.00    +0.000 C 
ATOM     37  C   UNL     1     -64.952 -45.498 -59.299  0.00  0.00    +0.000 C 
ATOM     38  C   UNL     1     -62.987 -46.564 -58.195  0.00  0.00    +0.000 C 
ATOM     39  C   UNL     1     -61.474 -46.457 -58.042  0.00  0.00    +0.000 C 
ATOM     40  C   UNL     1     -61.340 -45.320 -60.104  0.00  0.00    +0.000 C 
ATOM     41  C   UNL     1     -60.660 -45.368 -61.460  0.00  0.00    +0.000 C 
BRANCH  35  42
ATOM     42  O   UNL     1     -67.072 -45.976 -58.199  0.00  0.00    +0.000 OA
ATOM     43  H   UNL     1     -67.059 -46.793 -58.735  0.00  0.00    +0.000 HD
ENDBRANCH  35  42
BRANCH  37  44
ATOM     44  O   UNL     1     -65.386 -44.314 -59.989  0.00  0.00    +0.000 OA
ATOM     45  H   UNL     1     -66.142 -43.968 -59.478  0.00  0.00    +0.000 HD
ENDBRANCH  37  44
ENDBRANCH  30  34
ENDBRANCH   7  30
TORSDOF 8
ENDMDL
MODEL 9
REMARK VINA RESULT:      -5.7     58.660     63.862
REMARK  Name = 
REMARK  11 active torsions:
REMARK  status: ('A' for Active; 'I' for Inactive)
REMARK    1  A    between atoms: O_1  and  C_16
REMARK    2  A    between atoms: O_1  and  C_22
REMARK    3  A    between atoms: O_6  and  C_24
REMARK    4  A    between atoms: O_8  and  C_26
REMARK    5  A    between atoms: O_11  and  C_36
REMARK    6  A    between atoms: O_11  and  C_41
REMARK    7  A    between atoms: O_12  and  C_37
REMARK    8  A    between atoms: O_12  and  C_42
REMARK    9  A    between atoms: O_13  and  C_39
REMARK   10  A    between atoms: C_17  and  C_23
REMARK   11  A    between atoms: C_35  and  C_40
REMARK                            x       y       z     vdW  Elec       q    Type
REMARK                         _______ _______ _______ _____ _____    ______ ____
ROOT
ATOM      1  O   UNL     1     -48.423 -59.396 -83.194  0.00  0.00    +0.000 OA
ATOM      2  O   UNL     1     -50.514 -58.470 -83.034  0.00  0.00    +0.000 OA
ATOM      3  O   UNL     1     -49.782 -63.109 -75.769  0.00  0.00    +0.000 OA
ATOM      4  O   UNL     1     -51.643 -61.575 -75.748  0.00  0.00    +0.000 OA
ATOM      5  C   UNL     1     -48.278 -60.363 -81.093  0.00  0.00    +0.000 C 
ATOM      6  C   UNL     1     -49.739 -60.079 -81.384  0.00  0.00    +0.000 C 
ATOM      7  C   UNL     1     -48.143 -61.582 -80.190  0.00  0.00    +0.000 C 
ATOM      8  C   UNL     1     -50.453 -59.571 -80.132  0.00  0.00    +0.000 C 
ATOM      9  C   UNL     1     -49.114 -61.496 -79.014  0.00  0.00    +0.000 A 
ATOM     10  C   UNL     1     -50.221 -60.584 -78.998  0.00  0.00    +0.000 A 
ATOM     11  C   UNL     1     -47.721 -60.437 -82.493  0.00  0.00    +0.000 C 
ATOM     12  C   UNL     1     -49.638 -59.192 -82.588  0.00  0.00    +0.000 C 
ATOM     13  C   UNL     1     -48.930 -62.376 -77.929  0.00  0.00    +0.000 A 
ATOM     14  C   UNL     1     -51.109 -60.576 -77.904  0.00  0.00    +0.000 A 
ATOM     15  C   UNL     1     -49.825 -62.330 -76.883  0.00  0.00    +0.000 A 
ATOM     16  C   UNL     1     -50.884 -61.457 -76.870  0.00  0.00    +0.000 A 
ATOM     17  C   UNL     1     -50.936 -62.624 -75.053  0.00  0.00    +0.000 C 
ENDROOT
BRANCH   8  18
ATOM     18  C   UNL     1     -50.112 -58.134 -79.733  0.00  0.00    +0.000 A 
ATOM     19  C   UNL     1     -48.824 -57.740 -79.328  0.00  0.00    +0.000 A 
ATOM     20  C   UNL     1     -51.116 -57.152 -79.781  0.00  0.00    +0.000 A 
ATOM     21  C   UNL     1     -50.835 -55.824 -79.460  0.00  0.00    +0.000 A 
ATOM     22  C   UNL     1     -48.522 -56.415 -78.980  0.00  0.00    +0.000 A 
ATOM     23  C   UNL     1     -49.540 -55.463 -79.052  0.00  0.00    +0.000 A 
BRANCH  21  24
ATOM     24  O   UNL     1     -51.738 -54.786 -79.497  0.00  0.00    +0.000 OA
ATOM     25  C   UNL     1     -52.297 -54.481 -80.772  0.00  0.00    +0.000 C 
ENDBRANCH  21  24
BRANCH  22  26
ATOM     26  O   UNL     1     -47.214 -56.244 -78.618  0.00  0.00    +0.000 OA
ATOM     27  C   UNL     1     -46.283 -55.888 -79.629  0.00  0.00    +0.000 C 
ENDBRANCH  22  26
BRANCH  23  28
ATOM     28  O   UNL     1     -49.324 -54.143 -78.743  0.00  0.00    +0.000 OA
ATOM     29  H   UNL     1     -48.971 -54.152 -77.832  0.00  0.00    +0.000 HD
ENDBRANCH  23  28
ENDBRANCH   8  18
BRANCH   7  30
ATOM     30  O   UNL     1     -48.491 -62.758 -80.922  0.00  0.00    +0.000 OA
BRANCH  30  34
ATOM     31  O   UNL     1     -46.251 -63.170 -80.395  0.00  0.00    +0.000 OA
ATOM     32  O   UNL     1     -43.696 -65.314 -81.947  0.00  0.00    +0.000 OA
ATOM     33  O   UNL     1     -42.843 -64.462 -79.914  0.00  0.00    +0.000 OA
ATOM     34  C   UNL     1     -47.441 -63.732 -80.951  0.00  0.00    +0.000 C 
ATOM     35  C   UNL     1     -47.255 -64.148 -82.429  0.00  0.00    +0.000 C 
ATOM     36  C   UNL     1     -44.809 -64.413 -81.900  0.00  0.00    +0.000 C 
ATOM     37  C   UNL     1     -46.015 -65.036 -82.602  0.00  0.00    +0.000 C 
ATOM     38  C   UNL     1     -45.172 -64.099 -80.451  0.00  0.00    +0.000 C 
ATOM     39  C   UNL     1     -43.924 -63.542 -79.775  0.00  0.00    +0.000 C 
ATOM     40  C   UNL     1     -42.565 -64.739 -81.287  0.00  0.00    +0.000 C 
ATOM     41  C   UNL     1     -41.430 -65.745 -81.344  0.00  0.00    +0.000 C 
BRANCH  35  42
ATOM     42  O   UNL     1     -48.429 -64.849 -82.872  0.00  0.00    +0.000 OA
ATOM     43  H   UNL     1     -48.533 -64.630 -83.818  0.00  0.00    +0.000 HD
ENDBRANCH  35  42
BRANCH  37  44
ATOM     44  O   UNL     1     -45.703 -65.184 -83.997  0.00  0.00    +0.000 OA
ATOM     45  H   UNL     1     -45.181 -64.396 -84.240  0.00  0.00    +0.000 HD
ENDBRANCH  37  44
ENDBRANCH  30  34
ENDBRANCH   7  30
TORSDOF 8
ENDMDL
