MODEL 1
REMARK VINA RESULT:      -3.9      0.000      0.000
REMARK  Name = 
REMARK  7 active torsions:
REMARK  status: ('A' for Active; 'I' for Inactive)
REMARK    1  A    between atoms: S_1  and  O_3
REMARK    2  A    between atoms: S_1  and  O_6
REMARK    3  A    between atoms: O_3  and  C_9
REMARK    4  A    between atoms: O_4  and  C_10
REMARK    5  A    between atoms: O_5  and  C_11
REMARK    6  A    between atoms: C_12  and  C_14
REMARK    7  A    between atoms: C_13  and  C_15
REMARK                            x       y       z     vdW  Elec       q    Type
REMARK                         _______ _______ _______ _____ _____    ______ ____
ROOT
ATOM      1  O   UNL     1     -52.611 -59.415 -90.831  0.00  0.00    +0.000 OA
ATOM      2  C   UNL     1     -54.506 -60.140 -92.208  0.00  0.00    +0.000 C 
ATOM      3  C   UNL     1     -55.258 -60.544 -90.932  0.00  0.00    +0.000 C 
ATOM      4  C   UNL     1     -54.279 -60.877 -89.797  0.00  0.00    +0.000 C 
ATOM      5  C   UNL     1     -53.510 -59.014 -91.873  0.00  0.00    +0.000 C 
ATOM      6  C   UNL     1     -53.282 -59.727 -89.602  0.00  0.00    +0.000 C 
ATOM      7  C   UNL     1     -52.660 -58.628 -93.078  0.00  0.00    +0.000 C 
ATOM      8  C   UNL     1     -52.214 -60.081 -88.573  0.00  0.00    +0.000 C 
ENDROOT
BRANCH   3   9
ATOM      9  O   UNL     1     -56.113 -61.682 -91.121  0.00  0.00    +0.000 OA
ATOM     10  H   UNL     1     -55.561 -62.487 -91.208  0.00  0.00    +0.000 HD
ENDBRANCH   3   9
BRANCH   4  11
ATOM     11  O   UNL     1     -55.029 -61.114 -88.600  0.00  0.00    +0.000 OA
ATOM     12  H   UNL     1     -54.594 -61.883 -88.179  0.00  0.00    +0.000 HD
ENDBRANCH   4  11
BRANCH   2  13
ATOM     13  O   UNL     1     -53.798 -61.269 -92.723  0.00  0.00    +0.000 OA
BRANCH  13  14
ATOM     14  S   UNL     1     -54.255 -61.883 -94.152  0.00  0.00    +0.000 S 
ATOM     15  O   UNL     1     -55.087 -60.908 -94.818  0.00  0.00    +0.000 OA
ATOM     16  O   UNL     1     -53.108 -62.493 -94.788  0.00  0.00    +0.000 OA
BRANCH  14  17
ATOM     17  O   UNL     1     -55.252 -63.061 -93.699  0.00  0.00    +0.000 OA
ATOM     18  H   UNL     1     -54.727 -63.692 -93.164  0.00  0.00    +0.000 HD
ENDBRANCH  14  17
ENDBRANCH  13  14
ENDBRANCH   2  13
TORSDOF 5
ENDMDL
MODEL 2
REMARK VINA RESULT:      -3.9     26.761     28.220
REMARK  Name = 
REMARK  7 active torsions:
REMARK  status: ('A' for Active; 'I' for Inactive)
REMARK    1  A    between atoms: S_1  and  O_3
REMARK    2  A    between atoms: S_1  and  O_6
REMARK    3  A    between atoms: O_3  and  C_9
REMARK    4  A    between atoms: O_4  and  C_10
REMARK    5  A    between atoms: O_5  and  C_11
REMARK    6  A    between atoms: C_12  and  C_14
REMARK    7  A    between atoms: C_13  and  C_15
REMARK                            x       y       z     vdW  Elec       q    Type
REMARK                         _______ _______ _______ _____ _____    ______ ____
ROOT
ATOM      1  O   UNL     1     -70.409 -47.022 -71.413  0.00  0.00    +0.000 OA
ATOM      2  C   UNL     1     -71.628 -48.155 -73.214  0.00  0.00    +0.000 C 
ATOM      3  C   UNL     1     -72.262 -49.091 -72.175  0.00  0.00    +0.000 C 
ATOM      4  C   UNL     1     -71.369 -49.222 -70.933  0.00  0.00    +0.000 C 
ATOM      5  C   UNL     1     -71.271 -46.817 -72.540  0.00  0.00    +0.000 C 
ATOM      6  C   UNL     1     -71.006 -47.833 -70.391  0.00  0.00    +0.000 C 
ATOM      7  C   UNL     1     -70.550 -45.872 -73.494  0.00  0.00    +0.000 C 
ATOM      8  C   UNL     1     -70.013 -47.924 -69.239  0.00  0.00    +0.000 C 
ENDROOT
BRANCH   3   9
ATOM      9  O   UNL     1     -72.504 -50.412 -72.682  0.00  0.00    +0.000 OA
ATOM     10  H   UNL     1     -73.454 -50.627 -72.576  0.00  0.00    +0.000 HD
ENDBRANCH   3   9
BRANCH   4  11
ATOM     11  O   UNL     1     -72.065 -49.991 -69.947  0.00  0.00    +0.000 OA
ATOM     12  H   UNL     1     -71.968 -50.921 -70.238  0.00  0.00    +0.000 HD
ENDBRANCH   4  11
BRANCH   2  13
ATOM     13  O   UNL     1     -70.444 -48.758 -73.740  0.00  0.00    +0.000 OA
BRANCH  13  14
ATOM     14  S   UNL     1     -70.460 -49.287 -75.271  0.00  0.00    +0.000 S 
ATOM     15  O   UNL     1     -71.667 -48.808 -75.903  0.00  0.00    +0.000 OA
ATOM     16  O   UNL     1     -69.148 -49.090 -75.849  0.00  0.00    +0.000 OA
BRANCH  14  17
ATOM     17  O   UNL     1     -70.678 -50.868 -75.070  0.00  0.00    +0.000 OA
ATOM     18  H   UNL     1     -71.633 -51.045 -75.200  0.00  0.00    +0.000 HD
ENDBRANCH  14  17
ENDBRANCH  13  14
ENDBRANCH   2  13
TORSDOF 5
ENDMDL
MODEL 3
REMARK VINA RESULT:      -3.9     34.910     36.697
REMARK  Name = 
REMARK  7 active torsions:
REMARK  status: ('A' for Active; 'I' for Inactive)
REMARK    1  A    between atoms: S_1  and  O_3
REMARK    2  A    between atoms: S_1  and  O_6
REMARK    3  A    between atoms: O_3  and  C_9
REMARK    4  A    between atoms: O_4  and  C_10
REMARK    5  A    between atoms: O_5  and  C_11
REMARK    6  A    between atoms: C_12  and  C_14
REMARK    7  A    between atoms: C_13  and  C_15
REMARK                            x       y       z     vdW  Elec       q    Type
REMARK                         _______ _______ _______ _____ _____    ______ ____
ROOT
ATOM      1  O   UNL     1     -62.057 -44.887 -58.163  0.00  0.00    +0.000 OA
ATOM      2  C   UNL     1     -63.044 -46.775 -59.377  0.00  0.00    +0.000 C 
ATOM      3  C   UNL     1     -62.092 -46.499 -60.550  0.00  0.00    +0.000 C 
ATOM      4  C   UNL     1     -61.660 -45.026 -60.575  0.00  0.00    +0.000 C 
ATOM      5  C   UNL     1     -62.398 -46.276 -58.072  0.00  0.00    +0.000 C 
ATOM      6  C   UNL     1     -61.109 -44.611 -59.204  0.00  0.00    +0.000 C 
ATOM      7  C   UNL     1     -63.332 -46.434 -56.877  0.00  0.00    +0.000 C 
ATOM      8  C   UNL     1     -60.795 -43.120 -59.155  0.00  0.00    +0.000 C 
ENDROOT
BRANCH   3   9
ATOM      9  O   UNL     1     -62.669 -46.808 -61.827  0.00  0.00    +0.000 OA
ATOM     10  H   UNL     1     -63.133 -46.016 -62.170  0.00  0.00    +0.000 HD
ENDBRANCH   3   9
BRANCH   4  11
ATOM     11  O   UNL     1     -60.673 -44.855 -61.598  0.00  0.00    +0.000 OA
ATOM     12  H   UNL     1     -60.612 -45.728 -62.036  0.00  0.00    +0.000 HD
ENDBRANCH   4  11
BRANCH   2  13
ATOM     13  O   UNL     1     -64.279 -46.089 -59.594  0.00  0.00    +0.000 OA
BRANCH  13  14
ATOM     14  S   UNL     1     -65.610 -46.966 -59.885  0.00  0.00    +0.000 S 
ATOM     15  O   UNL     1     -66.685 -46.060 -60.215  0.00  0.00    +0.000 OA
ATOM     16  O   UNL     1     -65.256 -48.092 -60.722  0.00  0.00    +0.000 OA
BRANCH  14  17
ATOM     17  O   UNL     1     -65.958 -47.531 -58.420  0.00  0.00    +0.000 OA
ATOM     18  H   UNL     1     -66.077 -46.754 -57.834  0.00  0.00    +0.000 HD
ENDBRANCH  14  17
ENDBRANCH  13  14
ENDBRANCH   2  13
TORSDOF 5
ENDMDL
MODEL 4
REMARK VINA RESULT:      -3.9     11.355     13.745
REMARK  Name = 
REMARK  7 active torsions:
REMARK  status: ('A' for Active; 'I' for Inactive)
REMARK    1  A    between atoms: S_1  and  O_3
REMARK    2  A    between atoms: S_1  and  O_6
REMARK    3  A    between atoms: O_3  and  C_9
REMARK    4  A    between atoms: O_4  and  C_10
REMARK    5  A    between atoms: O_5  and  C_11
REMARK    6  A    between atoms: C_12  and  C_14
REMARK    7  A    between atoms: C_13  and  C_15
REMARK                            x       y       z     vdW  Elec       q    Type
REMARK                         _______ _______ _______ _____ _____    ______ ____
ROOT
ATOM      1  O   UNL     1     -59.458 -69.183 -84.412  0.00  0.00    +0.000 OA
ATOM      2  C   UNL     1     -60.117 -68.378 -82.192  0.00  0.00    +0.000 C 
ATOM      3  C   UNL     1     -60.514 -67.032 -82.814  0.00  0.00    +0.000 C 
ATOM      4  C   UNL     1     -59.728 -66.769 -84.107  0.00  0.00    +0.000 C 
ATOM      5  C   UNL     1     -60.246 -69.485 -83.254  0.00  0.00    +0.000 C 
ATOM      6  C   UNL     1     -59.857 -67.966 -85.059  0.00  0.00    +0.000 C 
ATOM      7  C   UNL     1     -59.776 -70.837 -82.729  0.00  0.00    +0.000 C 
ATOM      8  C   UNL     1     -58.982 -67.795 -86.295  0.00  0.00    +0.000 C 
ENDROOT
BRANCH   3   9
ATOM      9  O   UNL     1     -60.294 -65.919 -81.934  0.00  0.00    +0.000 OA
ATOM     10  H   UNL     1     -59.413 -66.011 -81.515  0.00  0.00    +0.000 HD
ENDBRANCH   3   9
BRANCH   4  11
ATOM     11  O   UNL     1     -60.232 -65.575 -84.714  0.00  0.00    +0.000 OA
ATOM     12  H   UNL     1     -59.876 -65.588 -85.627  0.00  0.00    +0.000 HD
ENDBRANCH   4  11
BRANCH   2  13
ATOM     13  O   UNL     1     -58.766 -68.311 -81.731  0.00  0.00    +0.000 OA
BRANCH  13  14
ATOM     14  S   UNL     1     -58.496 -68.212 -80.136  0.00  0.00    +0.000 S 
ATOM     15  O   UNL     1     -59.742 -68.462 -79.450  0.00  0.00    +0.000 OA
ATOM     16  O   UNL     1     -57.277 -68.926 -79.822  0.00  0.00    +0.000 OA
BRANCH  14  17
ATOM     17  O   UNL     1     -58.210 -66.641 -79.948  0.00  0.00    +0.000 OA
ATOM     18  H   UNL     1     -57.238 -66.532 -79.878  0.00  0.00    +0.000 HD
ENDBRANCH  14  17
ENDBRANCH  13  14
ENDBRANCH   2  13
TORSDOF 5
ENDMDL
MODEL 5
REMARK VINA RESULT:      -3.8      3.360      5.535
REMARK  Name = 
REMARK  7 active torsions:
REMARK  status: ('A' for Active; 'I' for Inactive)
REMARK    1  A    between atoms: S_1  and  O_3
REMARK    2  A    between atoms: S_1  and  O_6
REMARK    3  A    between atoms: O_3  and  C_9
REMARK    4  A    between atoms: O_4  and  C_10
REMARK    5  A    between atoms: O_5  and  C_11
REMARK    6  A    between atoms: C_12  and  C_14
REMARK    7  A    between atoms: C_13  and  C_15
REMARK                            x       y       z     vdW  Elec       q    Type
REMARK                         _______ _______ _______ _____ _____    ______ ____
ROOT
ATOM      1  O   UNL     1     -53.649 -58.736 -91.303  0.00  0.00    +0.000 OA
ATOM      2  C   UNL     1     -52.026 -58.885 -89.471  0.00  0.00    +0.000 C 
ATOM      3  C   UNL     1     -52.672 -60.205 -89.026  0.00  0.00    +0.000 C 
ATOM      4  C   UNL     1     -54.143 -60.274 -89.463  0.00  0.00    +0.000 C 
ATOM      5  C   UNL     1     -52.253 -58.694 -90.983  0.00  0.00    +0.000 C 
ATOM      6  C   UNL     1     -54.263 -59.988 -90.966  0.00  0.00    +0.000 C 
ATOM      7  C   UNL     1     -51.717 -57.355 -91.475  0.00  0.00    +0.000 C 
ATOM      8  C   UNL     1     -55.721 -59.917 -91.406  0.00  0.00    +0.000 C 
ENDROOT
BRANCH   3   9
ATOM      9  O   UNL     1     -52.627 -60.401 -87.605  0.00  0.00    +0.000 OA
ATOM     10  H   UNL     1     -53.497 -60.735 -87.300  0.00  0.00    +0.000 HD
ENDBRANCH   3   9
BRANCH   4  11
ATOM     11  O   UNL     1     -54.655 -61.572 -89.145  0.00  0.00    +0.000 OA
ATOM     12  H   UNL     1     -55.573 -61.413 -88.843  0.00  0.00    +0.000 HD
ENDBRANCH   4  11
BRANCH   2  13
ATOM     13  O   UNL     1     -52.617 -57.799 -88.756  0.00  0.00    +0.000 OA
BRANCH  13  14
ATOM     14  S   UNL     1     -51.708 -56.991 -87.686  0.00  0.00    +0.000 S 
ATOM     15  O   UNL     1     -50.799 -56.139 -88.416  0.00  0.00    +0.000 OA
ATOM     16  O   UNL     1     -52.560 -56.495 -86.627  0.00  0.00    +0.000 OA
BRANCH  14  17
ATOM     17  O   UNL     1     -50.797 -58.167 -87.075  0.00  0.00    +0.000 OA
ATOM     18  H   UNL     1     -49.896 -58.054 -87.444  0.00  0.00    +0.000 HD
ENDBRANCH  14  17
ENDBRANCH  13  14
ENDBRANCH   2  13
TORSDOF 5
ENDMDL
MODEL 6
REMARK VINA RESULT:      -3.8     34.993     37.136
REMARK  Name = 
REMARK  7 active torsions:
REMARK  status: ('A' for Active; 'I' for Inactive)
REMARK    1  A    between atoms: S_1  and  O_3
REMARK    2  A    between atoms: S_1  and  O_6
REMARK    3  A    between atoms: O_3  and  C_9
REMARK    4  A    between atoms: O_4  and  C_10
REMARK    5  A    between atoms: O_5  and  C_11
REMARK    6  A    between atoms: C_12  and  C_14
REMARK    7  A    between atoms: C_13  and  C_15
REMARK                            x       y       z     vdW  Elec       q    Type
REMARK                         _______ _______ _______ _____ _____    ______ ____
ROOT
ATOM      1  O   UNL     1     -65.967 -45.869 -60.017  0.00  0.00    +0.000 OA
ATOM      2  C   UNL     1     -63.742 -46.278 -59.071  0.00  0.00    +0.000 C 
ATOM      3  C   UNL     1     -63.934 -45.073 -58.139  0.00  0.00    +0.000 C 
ATOM      4  C   UNL     1     -64.919 -44.061 -58.740  0.00  0.00    +0.000 C 
ATOM      5  C   UNL     1     -65.120 -46.865 -59.430  0.00  0.00    +0.000 C 
ATOM      6  C   UNL     1     -66.224 -44.765 -59.138  0.00  0.00    +0.000 C 
ATOM      7  C   UNL     1     -65.009 -48.010 -60.431  0.00  0.00    +0.000 C 
ATOM      8  C   UNL     1     -67.173 -43.815 -59.860  0.00  0.00    +0.000 C 
ENDROOT
BRANCH   3   9
ATOM      9  O   UNL     1     -62.709 -44.379 -57.859  0.00  0.00    +0.000 OA
ATOM     10  H   UNL     1     -62.862 -43.738 -57.134  0.00  0.00    +0.000 HD
ENDBRANCH   3   9
BRANCH   4  11
ATOM     11  O   UNL     1     -65.164 -43.032 -57.777  0.00  0.00    +0.000 OA
ATOM     12  H   UNL     1     -66.099 -42.774 -57.917  0.00  0.00    +0.000 HD
ENDBRANCH   4  11
BRANCH   2  13
ATOM     13  O   UNL     1     -63.074 -45.859 -60.262  0.00  0.00    +0.000 OA
BRANCH  13  14
ATOM     14  S   UNL     1     -61.515 -46.255 -60.455  0.00  0.00    +0.000 S 
ATOM     15  O   UNL     1     -60.941 -45.368 -61.439  0.00  0.00    +0.000 OA
ATOM     16  O   UNL     1     -60.920 -46.464 -59.153  0.00  0.00    +0.000 OA
BRANCH  14  17
ATOM     17  O   UNL     1     -61.628 -47.686 -61.181  0.00  0.00    +0.000 OA
ATOM     18  H   UNL     1     -62.454 -47.676 -61.709  0.00  0.00    +0.000 HD
ENDBRANCH  14  17
ENDBRANCH  13  14
ENDBRANCH   2  13
TORSDOF 5
ENDMDL
MODEL 7
REMARK VINA RESULT:      -3.8      1.503      2.109
REMARK  Name = 
REMARK  7 active torsions:
REMARK  status: ('A' for Active; 'I' for Inactive)
REMARK    1  A    between atoms: S_1  and  O_3
REMARK    2  A    between atoms: S_1  and  O_6
REMARK    3  A    between atoms: O_3  and  C_9
REMARK    4  A    between atoms: O_4  and  C_10
REMARK    5  A    between atoms: O_5  and  C_11
REMARK    6  A    between atoms: C_12  and  C_14
REMARK    7  A    between atoms: C_13  and  C_15
REMARK                            x       y       z     vdW  Elec       q    Type
REMARK                         _______ _______ _______ _____ _____    ______ ____
ROOT
ATOM      1  O   UNL     1     -52.992 -58.472 -90.964  0.00  0.00    +0.000 OA
ATOM      2  C   UNL     1     -54.907 -59.984 -90.715  0.00  0.00    +0.000 C 
ATOM      3  C   UNL     1     -54.433 -60.325 -89.295  0.00  0.00    +0.000 C 
ATOM      4  C   UNL     1     -52.918 -60.119 -89.154  0.00  0.00    +0.000 C 
ATOM      5  C   UNL     1     -54.417 -58.572 -91.087  0.00  0.00    +0.000 C 
ATOM      6  C   UNL     1     -52.528 -58.713 -89.628  0.00  0.00    +0.000 C 
ATOM      7  C   UNL     1     -54.773 -58.205 -92.523  0.00  0.00    +0.000 C 
ATOM      8  C   UNL     1     -51.016 -58.522 -89.627  0.00  0.00    +0.000 C 
ENDROOT
BRANCH   3   9
ATOM      9  O   UNL     1     -54.729 -61.677 -88.913  0.00  0.00    +0.000 OA
ATOM     10  H   UNL     1     -55.035 -61.688 -87.982  0.00  0.00    +0.000 HD
ENDBRANCH   3   9
BRANCH   4  11
ATOM     11  O   UNL     1     -52.554 -60.318 -87.784  0.00  0.00    +0.000 OA
ATOM     12  H   UNL     1     -52.038 -61.151 -87.780  0.00  0.00    +0.000 HD
ENDBRANCH   4  11
BRANCH   2  13
ATOM     13  O   UNL     1     -54.373 -60.936 -91.637  0.00  0.00    +0.000 OA
BRANCH  13  14
ATOM     14  S   UNL     1     -55.364 -62.066 -92.243  0.00  0.00    +0.000 S 
ATOM     15  O   UNL     1     -56.703 -61.791 -91.777  0.00  0.00    +0.000 OA
ATOM     16  O   UNL     1     -55.051 -62.263 -93.642  0.00  0.00    +0.000 OA
BRANCH  14  17
ATOM     17  O   UNL     1     -54.891 -63.379 -91.443  0.00  0.00    +0.000 OA
ATOM     18  H   UNL     1     -54.785 -64.095 -92.104  0.00  0.00    +0.000 HD
ENDBRANCH  14  17
ENDBRANCH  13  14
ENDBRANCH   2  13
TORSDOF 5
ENDMDL
MODEL 8
REMARK VINA RESULT:      -3.7     22.722     24.549
REMARK  Name = 
REMARK  7 active torsions:
REMARK  status: ('A' for Active; 'I' for Inactive)
REMARK    1  A    between atoms: S_1  and  O_3
REMARK    2  A    between atoms: S_1  and  O_6
REMARK    3  A    between atoms: O_3  and  C_9
REMARK    4  A    between atoms: O_4  and  C_10
REMARK    5  A    between atoms: O_5  and  C_11
REMARK    6  A    between atoms: C_12  and  C_14
REMARK    7  A    between atoms: C_13  and  C_15
REMARK                            x       y       z     vdW  Elec       q    Type
REMARK                         _______ _______ _______ _____ _____    ______ ____
ROOT
ATOM      1  O   UNL     1     -64.714 -62.793 -71.157  0.00  0.00    +0.000 OA
ATOM      2  C   UNL     1     -65.741 -60.594 -70.806  0.00  0.00    +0.000 C 
ATOM      3  C   UNL     1     -65.755 -60.860 -69.294  0.00  0.00    +0.000 C 
ATOM      4  C   UNL     1     -65.786 -62.366 -68.998  0.00  0.00    +0.000 C 
ATOM      5  C   UNL     1     -64.594 -61.395 -71.450  0.00  0.00    +0.000 C 
ATOM      6  C   UNL     1     -64.654 -63.077 -69.752  0.00  0.00    +0.000 C 
ATOM      7  C   UNL     1     -64.580 -61.251 -72.967  0.00  0.00    +0.000 C 
ATOM      8  C   UNL     1     -64.737 -64.591 -69.587  0.00  0.00    +0.000 C 
ENDROOT
BRANCH   3   9
ATOM      9  O   UNL     1     -66.877 -60.260 -68.628  0.00  0.00    +0.000 OA
ATOM     10  H   UNL     1     -66.566 -59.819 -67.810  0.00  0.00    +0.000 HD
ENDBRANCH   3   9
BRANCH   4  11
ATOM     11  O   UNL     1     -65.660 -62.559 -67.585  0.00  0.00    +0.000 OA
ATOM     12  H   UNL     1     -65.918 -63.491 -67.435  0.00  0.00    +0.000 HD
ENDBRANCH   4  11
BRANCH   2  13
ATOM     13  O   UNL     1     -66.987 -61.001 -71.373  0.00  0.00    +0.000 OA
BRANCH  13  14
ATOM     14  S   UNL     1     -67.941 -59.871 -72.037  0.00  0.00    +0.000 S 
ATOM     15  O   UNL     1     -67.116 -58.746 -72.411  0.00  0.00    +0.000 OA
ATOM     16  O   UNL     1     -68.852 -60.511 -72.961  0.00  0.00    +0.000 OA
BRANCH  14  17
ATOM     17  O   UNL     1     -68.794 -59.375 -70.767  0.00  0.00    +0.000 OA
ATOM     18  H   UNL     1     -69.339 -58.617 -71.066  0.00  0.00    +0.000 HD
ENDBRANCH  14  17
ENDBRANCH  13  14
ENDBRANCH   2  13
TORSDOF 5
ENDMDL
MODEL 9
REMARK VINA RESULT:      -3.7     35.490     37.656
REMARK  Name = 
REMARK  7 active torsions:
REMARK  status: ('A' for Active; 'I' for Inactive)
REMARK    1  A    between atoms: S_1  and  O_3
REMARK    2  A    between atoms: S_1  and  O_6
REMARK    3  A    between atoms: O_3  and  C_9
REMARK    4  A    between atoms: O_4  and  C_10
REMARK    5  A    between atoms: O_5  and  C_11
REMARK    6  A    between atoms: C_12  and  C_14
REMARK    7  A    between atoms: C_13  and  C_15
REMARK                            x       y       z     vdW  Elec       q    Type
REMARK                         _______ _______ _______ _____ _____    ______ ____
ROOT
ATOM      1  O   UNL     1     -63.878 -46.687 -60.331  0.00  0.00    +0.000 OA
ATOM      2  C   UNL     1     -62.115 -46.220 -58.693  0.00  0.00    +0.000 C 
ATOM      3  C   UNL     1     -63.116 -46.494 -57.561  0.00  0.00    +0.000 C 
ATOM      4  C   UNL     1     -64.557 -46.234 -58.023  0.00  0.00    +0.000 C 
ATOM      5  C   UNL     1     -62.537 -47.011 -59.945  0.00  0.00    +0.000 C 
ATOM      6  C   UNL     1     -64.845 -47.004 -59.319  0.00  0.00    +0.000 C 
ATOM      7  C   UNL     1     -61.638 -46.711 -61.139  0.00  0.00    +0.000 C 
ATOM      8  C   UNL     1     -66.222 -46.663 -59.878  0.00  0.00    +0.000 C 
ENDROOT
BRANCH   3   9
ATOM      9  O   UNL     1     -62.879 -45.692 -56.394  0.00  0.00    +0.000 OA
ATOM     10  H   UNL     1     -62.680 -44.774 -56.672  0.00  0.00    +0.000 HD
ENDBRANCH   3   9
BRANCH   4  11
ATOM     11  O   UNL     1     -65.452 -46.634 -56.980  0.00  0.00    +0.000 OA
ATOM     12  H   UNL     1     -65.010 -46.358 -56.151  0.00  0.00    +0.000 HD
ENDBRANCH   4  11
BRANCH   2  13
ATOM     13  O   UNL     1     -62.103 -44.823 -58.990  0.00  0.00    +0.000 OA
BRANCH  13  14
ATOM     14  S   UNL     1     -60.914 -43.911 -58.373  0.00  0.00    +0.000 S 
ATOM     15  O   UNL     1     -60.084 -44.750 -57.541  0.00  0.00    +0.000 OA
ATOM     16  O   UNL     1     -60.371 -43.075 -59.422  0.00  0.00    +0.000 OA
BRANCH  14  17
ATOM     17  O   UNL     1     -61.722 -42.963 -57.356  0.00  0.00    +0.000 OA
ATOM     18  H   UNL     1     -61.927 -43.501 -56.563  0.00  0.00    +0.000 HD
ENDBRANCH  14  17
ENDBRANCH  13  14
ENDBRANCH   2  13
TORSDOF 5
ENDMDL
