MODEL 1
REMARK VINA RESULT:      -5.9      0.000      0.000
REMARK  Name = Fulvestrant.pdbqt.pdb
REMARK  12 active torsions:
REMARK  status: ('A' for Active; 'I' for Inactive)
REMARK    1  A    between atoms: C_6  and  O_40
REMARK    2  A    between atoms: C_8  and  C_19
REMARK    3  A    between atoms: C_18  and  O_42
REMARK    4  A    between atoms: C_20  and  C_21
REMARK    5  A    between atoms: C_22  and  C_23
REMARK    6  A    between atoms: C_23  and  C_24
REMARK    7  A    between atoms: C_25  and  C_26
REMARK    8  A    between atoms: C_27  and  S_28
REMARK    9  A    between atoms: S_28  and  C_30
REMARK   10  A    between atoms: C_30  and  C_31
REMARK   11  A    between atoms: C_32  and  C_33
REMARK   12  A    between atoms: C_33  and  C_36
REMARK                            x       y       z     vdW  Elec       q    Type
REMARK                         _______ _______ _______ _____ _____    ______ ____
ROOT
ATOM      1  C   UNL     1     -61.143 -44.773 -44.647  0.00  0.00    +0.000 C 
ATOM      2  C   UNL     1     -61.771 -44.443 -46.086  0.00  0.00    +0.000 C 
ATOM      3  C   UNL     1     -59.798 -45.405 -44.451  0.00  0.00    +0.000 A 
ATOM      4  C   UNL     1     -58.744 -45.417 -45.577  0.00  0.00    +0.000 A 
ATOM      5  C   UNL     1     -60.644 -44.404 -47.011  0.00  0.00    +0.000 C 
ATOM      6  C   UNL     1     -62.434 -43.065 -45.865  0.00  0.00    +0.000 C 
ATOM      7  C   UNL     1     -61.568 -43.728 -43.765  0.00  0.00    +0.000 C 
ATOM      8  C   UNL     1     -59.405 -46.035 -43.162  0.00  0.00    +0.000 A 
ATOM      9  C   UNL     1     -59.231 -44.866 -46.786  0.00  0.00    +0.000 C 
ATOM     10  C   UNL     1     -62.339 -42.666 -44.505  0.00  0.00    +0.000 C 
ATOM     11  C   UNL     1     -62.837 -45.517 -46.421  0.00  0.00    +0.000 C 
ATOM     12  C   UNL     1     -57.379 -45.995 -45.420  0.00  0.00    +0.000 A 
ATOM     13  C   UNL     1     -58.074 -46.514 -43.214  0.00  0.00    +0.000 A 
ATOM     14  C   UNL     1     -57.032 -46.569 -44.174  0.00  0.00    +0.000 A 
ATOM     15  C   UNL     1     -56.435 -45.997 -46.445  0.00  0.00    +0.000 A 
ATOM     16  C   UNL     1     -55.787 -47.131 -43.941  0.00  0.00    +0.000 A 
ATOM     17  C   UNL     1     -55.176 -46.559 -46.225  0.00  0.00    +0.000 A 
ATOM     18  C   UNL     1     -54.866 -47.118 -44.984  0.00  0.00    +0.000 A 
ENDROOT
BRANCH   8  19
ATOM     19  C   UNL     1     -60.310 -46.285 -42.103  0.00  0.00    +0.000 C 
ATOM     20  C   UNL     1     -61.279 -46.540 -40.944  0.00  0.00    +0.000 C 
BRANCH  20  21
ATOM     21  C   UNL     1     -62.233 -46.775 -39.770  0.00  0.00    +0.000 C 
ATOM     22  C   UNL     1     -63.164 -47.022 -38.578  0.00  0.00    +0.000 C 
BRANCH  22  23
ATOM     23  C   UNL     1     -64.068 -47.285 -37.370  0.00  0.00    +0.000 C 
BRANCH  23  24
ATOM     24  C   UNL     1     -64.946 -47.566 -36.146  0.00  0.00    +0.000 C 
ATOM     25  C   UNL     1     -65.797 -47.834 -34.902  0.00  0.00    +0.000 C 
BRANCH  25  26
ATOM     26  C   UNL     1     -66.621 -48.094 -33.636  0.00  0.00    +0.000 C 
ATOM     27  C   UNL     1     -67.428 -48.324 -32.355  0.00  0.00    +0.000 C 
BRANCH  27  28
ATOM     28  S   UNL     1     -68.338 -48.564 -30.867  0.00  0.00    +0.000 S 
ATOM     29  O   UNL     1     -68.570 -50.014 -31.174  0.00  0.00    +0.000 OA
BRANCH  28  30
ATOM     30  C   UNL     1     -66.903 -48.930 -29.914  0.00  0.00    +0.000 C 
BRANCH  30  31
ATOM     31  C   UNL     1     -65.640 -49.238 -29.102  0.00  0.00    +0.000 C 
ATOM     32  C   UNL     1     -64.367 -49.536 -28.302  0.00  0.00    +0.000 C 
BRANCH  32  33
ATOM     33  C   UNL     1     -63.145 -49.818 -27.544  0.00  0.00    +0.000 C 
ATOM     34  F   UNL     1     -62.136 -50.026 -28.437  0.00  0.00    +0.000 F 
ATOM     35  F   UNL     1     -63.320 -51.003 -26.896  0.00  0.00    +0.000 F 
BRANCH  33  36
ATOM     36  C   UNL     1     -62.775 -48.708 -26.555  0.00  0.00    +0.000 C 
ATOM     37  F   UNL     1     -62.077 -49.184 -25.492  0.00  0.00    +0.000 F 
ATOM     38  F   UNL     1     -63.870 -48.079 -26.058  0.00  0.00    +0.000 F 
ATOM     39  F   UNL     1     -62.004 -47.752 -27.135  0.00  0.00    +0.000 F 
ENDBRANCH  33  36
ENDBRANCH  32  33
ENDBRANCH  30  31
ENDBRANCH  28  30
ENDBRANCH  27  28
ENDBRANCH  25  26
ENDBRANCH  23  24
ENDBRANCH  22  23
ENDBRANCH  20  21
ENDBRANCH   8  19
BRANCH   6  40
ATOM     40  O   UNL     1     -62.629 -42.159 -46.887  0.00  0.00    +0.000 OA
ATOM     41  H   UNL     1     -63.452 -42.339 -47.376  0.00  0.00    +0.000 HD
ENDBRANCH   6  40
BRANCH  18  42
ATOM     42  O   UNL     1     -53.622 -47.657 -44.816  0.00  0.00    +0.000 OA
ATOM     43  H   UNL     1     -53.643 -48.580 -45.125  0.00  0.00    +0.000 HD
ENDBRANCH  18  42
TORSDOF 12
ENDMDL
MODEL 2
REMARK VINA RESULT:      -5.9      9.444     13.228
REMARK  Name = Fulvestrant.pdbqt.pdb
REMARK  12 active torsions:
REMARK  status: ('A' for Active; 'I' for Inactive)
REMARK    1  A    between atoms: C_6  and  O_40
REMARK    2  A    between atoms: C_8  and  C_19
REMARK    3  A    between atoms: C_18  and  O_42
REMARK    4  A    between atoms: C_20  and  C_21
REMARK    5  A    between atoms: C_22  and  C_23
REMARK    6  A    between atoms: C_23  and  C_24
REMARK    7  A    between atoms: C_25  and  C_26
REMARK    8  A    between atoms: C_27  and  S_28
REMARK    9  A    between atoms: S_28  and  C_30
REMARK   10  A    between atoms: C_30  and  C_31
REMARK   11  A    between atoms: C_32  and  C_33
REMARK   12  A    between atoms: C_33  and  C_36
REMARK                            x       y       z     vdW  Elec       q    Type
REMARK                         _______ _______ _______ _____ _____    ______ ____
ROOT
ATOM      1  C   UNL     1     -67.001 -47.639 -54.833  0.00  0.00    +0.000 C 
ATOM      2  C   UNL     1     -68.250 -48.617 -55.073  0.00  0.00    +0.000 C 
ATOM      3  C   UNL     1     -65.966 -47.339 -55.875  0.00  0.00    +0.000 A 
ATOM      4  C   UNL     1     -66.229 -47.612 -57.371  0.00  0.00    +0.000 A 
ATOM      5  C   UNL     1     -68.418 -48.698 -56.520  0.00  0.00    +0.000 C 
ATOM      6  C   UNL     1     -69.406 -47.881 -54.360  0.00  0.00    +0.000 C 
ATOM      7  C   UNL     1     -67.460 -46.591 -53.971  0.00  0.00    +0.000 C 
ATOM      8  C   UNL     1     -64.646 -46.749 -55.526  0.00  0.00    +0.000 A 
ATOM      9  C   UNL     1     -67.476 -48.241 -57.599  0.00  0.00    +0.000 C 
ATOM     10  C   UNL     1     -68.936 -46.717 -53.695  0.00  0.00    +0.000 C 
ATOM     11  C   UNL     1     -67.957 -49.975 -54.386  0.00  0.00    +0.000 C 
ATOM     12  C   UNL     1     -65.251 -47.294 -58.449  0.00  0.00    +0.000 A 
ATOM     13  C   UNL     1     -63.870 -46.515 -56.687  0.00  0.00    +0.000 A 
ATOM     14  C   UNL     1     -64.012 -46.716 -58.084  0.00  0.00    +0.000 A 
ATOM     15  C   UNL     1     -65.502 -47.543 -59.797  0.00  0.00    +0.000 A 
ATOM     16  C   UNL     1     -63.044 -46.391 -59.020  0.00  0.00    +0.000 A 
ATOM     17  C   UNL     1     -64.536 -47.220 -60.752  0.00  0.00    +0.000 A 
ATOM     18  C   UNL     1     -63.324 -46.652 -60.358  0.00  0.00    +0.000 A 
ENDROOT
BRANCH   8  19
ATOM     19  C   UNL     1     -64.170 -46.621 -54.200  0.00  0.00    +0.000 C 
ATOM     20  C   UNL     1     -63.634 -46.489 -52.771  0.00  0.00    +0.000 C 
BRANCH  20  21
ATOM     21  C   UNL     1     -63.073 -46.366 -51.352  0.00  0.00    +0.000 C 
ATOM     22  C   UNL     1     -62.504 -46.212 -49.938  0.00  0.00    +0.000 C 
BRANCH  22  23
ATOM     23  C   UNL     1     -61.926 -46.027 -48.531  0.00  0.00    +0.000 C 
BRANCH  23  24
ATOM     24  C   UNL     1     -61.369 -45.813 -47.120  0.00  0.00    +0.000 C 
ATOM     25  C   UNL     1     -60.795 -45.630 -45.712  0.00  0.00    +0.000 C 
BRANCH  25  26
ATOM     26  C   UNL     1     -60.208 -45.480 -44.305  0.00  0.00    +0.000 C 
ATOM     27  C   UNL     1     -59.607 -45.365 -42.900  0.00  0.00    +0.000 C 
BRANCH  27  28
ATOM     28  S   UNL     1     -58.908 -45.266 -41.287  0.00  0.00    +0.000 S 
ATOM     29  O   UNL     1     -59.228 -43.804 -41.176  0.00  0.00    +0.000 OA
BRANCH  28  30
ATOM     30  C   UNL     1     -60.409 -45.720 -40.485  0.00  0.00    +0.000 C 
BRANCH  30  31
ATOM     31  C   UNL     1     -61.716 -46.093 -39.778  0.00  0.00    +0.000 C 
ATOM     32  C   UNL     1     -63.032 -46.468 -39.088  0.00  0.00    +0.000 C 
BRANCH  32  33
ATOM     33  C   UNL     1     -64.295 -46.826 -38.437  0.00  0.00    +0.000 C 
ATOM     34  F   UNL     1     -64.863 -47.839 -39.150  0.00  0.00    +0.000 F 
ATOM     35  F   UNL     1     -65.141 -45.764 -38.557  0.00  0.00    +0.000 F 
BRANCH  33  36
ATOM     36  C   UNL     1     -64.128 -47.223 -36.966  0.00  0.00    +0.000 C 
ATOM     37  F   UNL     1     -64.132 -46.143 -36.144  0.00  0.00    +0.000 F 
ATOM     38  F   UNL     1     -62.964 -47.883 -36.744  0.00  0.00    +0.000 F 
ATOM     39  F   UNL     1     -65.128 -48.039 -36.547  0.00  0.00    +0.000 F 
ENDBRANCH  33  36
ENDBRANCH  32  33
ENDBRANCH  30  31
ENDBRANCH  28  30
ENDBRANCH  27  28
ENDBRANCH  25  26
ENDBRANCH  23  24
ENDBRANCH  22  23
ENDBRANCH  20  21
ENDBRANCH   8  19
BRANCH   6  40
ATOM     40  O   UNL     1     -70.727 -48.039 -54.723  0.00  0.00    +0.000 OA
ATOM     41  H   UNL     1     -71.212 -47.194 -54.698  0.00  0.00    +0.000 HD
ENDBRANCH   6  40
BRANCH  18  42
ATOM     42  O   UNL     1     -62.409 -46.354 -61.328  0.00  0.00    +0.000 OA
ATOM     43  H   UNL     1     -62.732 -45.584 -61.829  0.00  0.00    +0.000 HD
ENDBRANCH  18  42
TORSDOF 12
ENDMDL
MODEL 3
REMARK VINA RESULT:      -5.9     31.951     38.640
REMARK  Name = Fulvestrant.pdbqt.pdb
REMARK  12 active torsions:
REMARK  status: ('A' for Active; 'I' for Inactive)
REMARK    1  A    between atoms: C_6  and  O_40
REMARK    2  A    between atoms: C_8  and  C_19
REMARK    3  A    between atoms: C_18  and  O_42
REMARK    4  A    between atoms: C_20  and  C_21
REMARK    5  A    between atoms: C_22  and  C_23
REMARK    6  A    between atoms: C_23  and  C_24
REMARK    7  A    between atoms: C_25  and  C_26
REMARK    8  A    between atoms: C_27  and  S_28
REMARK    9  A    between atoms: S_28  and  C_30
REMARK   10  A    between atoms: C_30  and  C_31
REMARK   11  A    between atoms: C_32  and  C_33
REMARK   12  A    between atoms: C_33  and  C_36
REMARK                            x       y       z     vdW  Elec       q    Type
REMARK                         _______ _______ _______ _____ _____    ______ ____
ROOT
ATOM      1  C   UNL     1     -53.752 -55.916 -64.069  0.00  0.00    +0.000 C 
ATOM      2  C   UNL     1     -53.038 -55.447 -62.711  0.00  0.00    +0.000 C 
ATOM      3  C   UNL     1     -54.727 -57.051 -64.148  0.00  0.00    +0.000 A 
ATOM      4  C   UNL     1     -55.433 -57.594 -62.888  0.00  0.00    +0.000 A 
ATOM      5  C   UNL     1     -53.870 -55.961 -61.628  0.00  0.00    +0.000 C 
ATOM      6  C   UNL     1     -53.060 -53.906 -62.824  0.00  0.00    +0.000 C 
ATOM      7  C   UNL     1     -53.981 -54.732 -64.842  0.00  0.00    +0.000 C 
ATOM      8  C   UNL     1     -55.077 -57.699 -65.440  0.00  0.00    +0.000 A 
ATOM      9  C   UNL     1     -54.982 -56.971 -61.700  0.00  0.00    +0.000 C 
ATOM     10  C   UNL     1     -53.583 -53.495 -64.080  0.00  0.00    +0.000 C 
ATOM     11  C   UNL     1     -51.582 -55.976 -62.706  0.00  0.00    +0.000 C 
ATOM     12  C   UNL     1     -56.440 -58.692 -62.917  0.00  0.00    +0.000 A 
ATOM     13  C   UNL     1     -56.054 -58.708 -65.256  0.00  0.00    +0.000 A 
ATOM     14  C   UNL     1     -56.764 -59.272 -64.166  0.00  0.00    +0.000 A 
ATOM     15  C   UNL     1     -57.072 -59.171 -61.772  0.00  0.00    +0.000 A 
ATOM     16  C   UNL     1     -57.687 -60.299 -64.286  0.00  0.00    +0.000 A 
ATOM     17  C   UNL     1     -58.004 -60.204 -61.877  0.00  0.00    +0.000 A 
ATOM     18  C   UNL     1     -58.301 -60.756 -63.124  0.00  0.00    +0.000 A 
ENDROOT
BRANCH   8  19
ATOM     19  C   UNL     1     -54.384 -57.461 -66.651  0.00  0.00    +0.000 C 
ATOM     20  C   UNL     1     -53.651 -57.193 -67.969  0.00  0.00    +0.000 C 
BRANCH  20  21
ATOM     21  C   UNL     1     -52.943 -56.913 -69.297  0.00  0.00    +0.000 C 
ATOM     22  C   UNL     1     -52.206 -56.637 -70.611  0.00  0.00    +0.000 C 
BRANCH  22  23
ATOM     23  C   UNL     1     -51.439 -56.363 -71.909  0.00  0.00    +0.000 C 
BRANCH  23  24
ATOM     24  C   UNL     1     -50.703 -56.084 -73.224  0.00  0.00    +0.000 C 
ATOM     25  C   UNL     1     -49.999 -55.796 -74.553  0.00  0.00    +0.000 C 
BRANCH  25  26
ATOM     26  C   UNL     1     -49.326 -55.504 -75.898  0.00  0.00    +0.000 C 
ATOM     27  C   UNL     1     -48.681 -55.232 -77.260  0.00  0.00    +0.000 C 
BRANCH  27  28
ATOM     28  S   UNL     1     -47.963 -54.939 -78.841  0.00  0.00    +0.000 S 
ATOM     29  O   UNL     1     -46.667 -55.576 -78.434  0.00  0.00    +0.000 OA
BRANCH  28  30
ATOM     30  C   UNL     1     -48.564 -56.448 -79.520  0.00  0.00    +0.000 C 
BRANCH  30  31
ATOM     31  C   UNL     1     -49.068 -57.772 -80.104  0.00  0.00    +0.000 C 
ATOM     32  C   UNL     1     -49.569 -59.090 -80.706  0.00  0.00    +0.000 C 
BRANCH  32  33
ATOM     33  C   UNL     1     -50.048 -60.346 -81.289  0.00  0.00    +0.000 C 
ATOM     34  F   UNL     1     -50.513 -60.076 -82.542  0.00  0.00    +0.000 F 
ATOM     35  F   UNL     1     -51.130 -60.754 -80.569  0.00  0.00    +0.000 F 
BRANCH  33  36
ATOM     36  C   UNL     1     -48.978 -61.442 -81.331  0.00  0.00    +0.000 C 
ATOM     37  F   UNL     1     -48.480 -61.714 -80.097  0.00  0.00    +0.000 F 
ATOM     38  F   UNL     1     -47.925 -61.100 -82.114  0.00  0.00    +0.000 F 
ATOM     39  F   UNL     1     -49.470 -62.609 -81.821  0.00  0.00    +0.000 F 
ENDBRANCH  33  36
ENDBRANCH  32  33
ENDBRANCH  30  31
ENDBRANCH  28  30
ENDBRANCH  27  28
ENDBRANCH  25  26
ENDBRANCH  23  24
ENDBRANCH  22  23
ENDBRANCH  20  21
ENDBRANCH   8  19
BRANCH   6  40
ATOM     40  O   UNL     1     -53.053 -53.077 -61.723  0.00  0.00    +0.000 OA
ATOM     41  H   UNL     1     -52.214 -52.589 -61.644  0.00  0.00    +0.000 HD
ENDBRANCH   6  40
BRANCH  18  42
ATOM     42  O   UNL     1     -59.219 -61.766 -63.177  0.00  0.00    +0.000 OA
ATOM     43  H   UNL     1     -60.009 -61.490 -62.680  0.00  0.00    +0.000 HD
ENDBRANCH  18  42
TORSDOF 12
ENDMDL
MODEL 4
REMARK VINA RESULT:      -5.8     14.283     17.722
REMARK  Name = Fulvestrant.pdbqt.pdb
REMARK  12 active torsions:
REMARK  status: ('A' for Active; 'I' for Inactive)
REMARK    1  A    between atoms: C_6  and  O_40
REMARK    2  A    between atoms: C_8  and  C_19
REMARK    3  A    between atoms: C_18  and  O_42
REMARK    4  A    between atoms: C_20  and  C_21
REMARK    5  A    between atoms: C_22  and  C_23
REMARK    6  A    between atoms: C_23  and  C_24
REMARK    7  A    between atoms: C_25  and  C_26
REMARK    8  A    between atoms: C_27  and  S_28
REMARK    9  A    between atoms: S_28  and  C_30
REMARK   10  A    between atoms: C_30  and  C_31
REMARK   11  A    between atoms: C_32  and  C_33
REMARK   12  A    between atoms: C_33  and  C_36
REMARK                            x       y       z     vdW  Elec       q    Type
REMARK                         _______ _______ _______ _____ _____    ______ ____
ROOT
ATOM      1  C   UNL     1     -59.801 -60.020 -30.661  0.00  0.00    +0.000 C 
ATOM      2  C   UNL     1     -59.694 -61.587 -30.989  0.00  0.00    +0.000 C 
ATOM      3  C   UNL     1     -58.974 -58.970 -31.339  0.00  0.00    +0.000 A 
ATOM      4  C   UNL     1     -58.257 -59.250 -32.676  0.00  0.00    +0.000 A 
ATOM      5  C   UNL     1     -59.081 -61.675 -32.310  0.00  0.00    +0.000 C 
ATOM      6  C   UNL     1     -61.169 -62.046 -30.964  0.00  0.00    +0.000 C 
ATOM      7  C   UNL     1     -61.178 -59.756 -30.368  0.00  0.00    +0.000 C 
ATOM      8  C   UNL     1     -58.818 -57.605 -30.771  0.00  0.00    +0.000 A 
ATOM      9  C   UNL     1     -58.399 -60.593 -33.099  0.00  0.00    +0.000 C 
ATOM     10  C   UNL     1     -62.027 -60.984 -30.573  0.00  0.00    +0.000 C 
ATOM     11  C   UNL     1     -58.885 -62.277 -29.861  0.00  0.00    +0.000 C 
ATOM     12  C   UNL     1     -57.457 -58.229 -33.410  0.00  0.00    +0.000 A 
ATOM     13  C   UNL     1     -58.034 -56.786 -31.620  0.00  0.00    +0.000 A 
ATOM     14  C   UNL     1     -57.345 -56.934 -32.851  0.00  0.00    +0.000 A 
ATOM     15  C   UNL     1     -56.816 -58.494 -34.618  0.00  0.00    +0.000 A 
ATOM     16  C   UNL     1     -56.620 -55.925 -33.464  0.00  0.00    +0.000 A 
ATOM     17  C   UNL     1     -56.083 -57.487 -35.248  0.00  0.00    +0.000 A 
ATOM     18  C   UNL     1     -55.991 -56.221 -34.669  0.00  0.00    +0.000 A 
ENDROOT
BRANCH   8  19
ATOM     19  C   UNL     1     -59.239 -57.243 -29.469  0.00  0.00    +0.000 C 
ATOM     20  C   UNL     1     -59.700 -56.831 -28.067  0.00  0.00    +0.000 C 
BRANCH  20  21
ATOM     21  C   UNL     1     -60.165 -56.393 -26.676  0.00  0.00    +0.000 C 
ATOM     22  C   UNL     1     -60.654 -55.938 -25.297  0.00  0.00    +0.000 C 
BRANCH  22  23
ATOM     23  C   UNL     1     -61.168 -55.465 -23.934  0.00  0.00    +0.000 C 
BRANCH  23  24
ATOM     24  C   UNL     1     -61.713 -54.983 -22.585  0.00  0.00    +0.000 C 
ATOM     25  C   UNL     1     -62.290 -54.515 -21.246  0.00  0.00    +0.000 C 
BRANCH  25  26
ATOM     26  C   UNL     1     -62.899 -54.056 -19.918  0.00  0.00    +0.000 C 
ATOM     27  C   UNL     1     -63.540 -53.588 -18.607  0.00  0.00    +0.000 C 
BRANCH  27  28
ATOM     28  S   UNL     1     -64.305 -53.040 -17.119  0.00  0.00    +0.000 S 
ATOM     29  O   UNL     1     -65.680 -53.222 -17.691  0.00  0.00    +0.000 OA
BRANCH  28  30
ATOM     30  C   UNL     1     -64.321 -54.647 -16.401  0.00  0.00    +0.000 C 
BRANCH  30  31
ATOM     31  C   UNL     1     -64.313 -56.050 -15.783  0.00  0.00    +0.000 C 
ATOM     32  C   UNL     1     -64.315 -57.459 -15.181  0.00  0.00    +0.000 C 
BRANCH  32  33
ATOM     33  C   UNL     1     -64.323 -58.809 -14.611  0.00  0.00    +0.000 C 
ATOM     34  F   UNL     1     -63.246 -59.481 -15.107  0.00  0.00    +0.000 F 
ATOM     35  F   UNL     1     -65.421 -59.457 -15.092  0.00  0.00    +0.000 F 
BRANCH  33  36
ATOM     36  C   UNL     1     -64.313 -58.821 -13.079  0.00  0.00    +0.000 C 
ATOM     37  F   UNL     1     -65.430 -59.400 -12.567  0.00  0.00    +0.000 F 
ATOM     38  F   UNL     1     -64.244 -57.571 -12.558  0.00  0.00    +0.000 F 
ATOM     39  F   UNL     1     -63.253 -59.511 -12.587  0.00  0.00    +0.000 F 
ENDBRANCH  33  36
ENDBRANCH  32  33
ENDBRANCH  30  31
ENDBRANCH  28  30
ENDBRANCH  27  28
ENDBRANCH  25  26
ENDBRANCH  23  24
ENDBRANCH  22  23
ENDBRANCH  20  21
ENDBRANCH   8  19
BRANCH   6  40
ATOM     40  O   UNL     1     -61.624 -63.135 -31.678  0.00  0.00    +0.000 OA
ATOM     41  H   UNL     1     -61.162 -63.953 -31.423  0.00  0.00    +0.000 HD
ENDBRANCH   6  40
BRANCH  18  42
ATOM     42  O   UNL     1     -55.261 -55.268 -35.322  0.00  0.00    +0.000 OA
ATOM     43  H   UNL     1     -54.323 -55.523 -35.288  0.00  0.00    +0.000 HD
ENDBRANCH  18  42
TORSDOF 12
ENDMDL
MODEL 5
REMARK VINA RESULT:      -5.7      9.340     14.559
REMARK  Name = Fulvestrant.pdbqt.pdb
REMARK  12 active torsions:
REMARK  status: ('A' for Active; 'I' for Inactive)
REMARK    1  A    between atoms: C_6  and  O_40
REMARK    2  A    between atoms: C_8  and  C_19
REMARK    3  A    between atoms: C_18  and  O_42
REMARK    4  A    between atoms: C_20  and  C_21
REMARK    5  A    between atoms: C_22  and  C_23
REMARK    6  A    between atoms: C_23  and  C_24
REMARK    7  A    between atoms: C_25  and  C_26
REMARK    8  A    between atoms: C_27  and  S_28
REMARK    9  A    between atoms: S_28  and  C_30
REMARK   10  A    between atoms: C_30  and  C_31
REMARK   11  A    between atoms: C_32  and  C_33
REMARK   12  A    between atoms: C_33  and  C_36
REMARK                            x       y       z     vdW  Elec       q    Type
REMARK                         _______ _______ _______ _____ _____    ______ ____
ROOT
ATOM      1  C   UNL     1     -65.913 -47.700 -30.627  0.00  0.00    +0.000 C 
ATOM      2  C   UNL     1     -65.053 -46.567 -29.884  0.00  0.00    +0.000 C 
ATOM      3  C   UNL     1     -66.157 -47.725 -32.105  0.00  0.00    +0.000 A 
ATOM      4  C   UNL     1     -65.278 -46.912 -33.078  0.00  0.00    +0.000 A 
ATOM      5  C   UNL     1     -64.221 -45.960 -30.917  0.00  0.00    +0.000 C 
ATOM      6  C   UNL     1     -64.248 -47.374 -28.841  0.00  0.00    +0.000 C 
ATOM      7  C   UNL     1     -65.663 -48.927 -29.931  0.00  0.00    +0.000 C 
ATOM      8  C   UNL     1     -67.241 -48.543 -32.710  0.00  0.00    +0.000 A 
ATOM      9  C   UNL     1     -64.325 -46.107 -32.410  0.00  0.00    +0.000 C 
ATOM     10  C   UNL     1     -64.628 -48.743 -28.852  0.00  0.00    +0.000 C 
ATOM     11  C   UNL     1     -66.025 -45.583 -29.185  0.00  0.00    +0.000 C 
ATOM     12  C   UNL     1     -65.452 -46.933 -34.558  0.00  0.00    +0.000 A 
ATOM     13  C   UNL     1     -67.233 -48.435 -34.122  0.00  0.00    +0.000 A 
ATOM     14  C   UNL     1     -66.481 -47.738 -35.101  0.00  0.00    +0.000 A 
ATOM     15  C   UNL     1     -64.650 -46.196 -35.426  0.00  0.00    +0.000 A 
ATOM     16  C   UNL     1     -66.716 -47.817 -36.465  0.00  0.00    +0.000 A 
ATOM     17  C   UNL     1     -64.873 -46.265 -36.803  0.00  0.00    +0.000 A 
ATOM     18  C   UNL     1     -65.898 -47.069 -37.306  0.00  0.00    +0.000 A 
ENDROOT
BRANCH   8  19
ATOM     19  C   UNL     1     -68.253 -49.185 -31.957  0.00  0.00    +0.000 C 
ATOM     20  C   UNL     1     -69.362 -49.864 -31.147  0.00  0.00    +0.000 C 
BRANCH  20  21
ATOM     21  C   UNL     1     -70.487 -50.519 -30.342  0.00  0.00    +0.000 C 
ATOM     22  C   UNL     1     -71.591 -51.189 -29.518  0.00  0.00    +0.000 C 
BRANCH  22  23
ATOM     23  C   UNL     1     -72.671 -51.875 -28.676  0.00  0.00    +0.000 C 
BRANCH  23  24
ATOM     24  C   UNL     1     -73.763 -52.579 -27.863  0.00  0.00    +0.000 C 
ATOM     25  C   UNL     1     -74.830 -53.292 -27.027  0.00  0.00    +0.000 C 
BRANCH  25  26
ATOM     26  C   UNL     1     -75.871 -54.017 -26.168  0.00  0.00    +0.000 C 
ATOM     27  C   UNL     1     -76.933 -54.710 -25.309  0.00  0.00    +0.000 C 
BRANCH  27  28
ATOM     28  S   UNL     1     -78.170 -55.477 -24.318  0.00  0.00    +0.000 S 
ATOM     29  O   UNL     1     -77.589 -56.841 -24.547  0.00  0.00    +0.000 OA
BRANCH  28  30
ATOM     30  C   UNL     1     -77.261 -55.272 -22.823  0.00  0.00    +0.000 C 
BRANCH  30  31
ATOM     31  C   UNL     1     -76.461 -55.117 -21.525  0.00  0.00    +0.000 C 
ATOM     32  C   UNL     1     -75.668 -54.943 -20.225  0.00  0.00    +0.000 C 
BRANCH  32  33
ATOM     33  C   UNL     1     -74.913 -54.768 -18.982  0.00  0.00    +0.000 C 
ATOM     34  F   UNL     1     -75.458 -55.589 -18.040  0.00  0.00    +0.000 F 
ATOM     35  F   UNL     1     -75.127 -53.497 -18.540  0.00  0.00    +0.000 F 
BRANCH  33  36
ATOM     36  C   UNL     1     -73.414 -55.042 -19.140  0.00  0.00    +0.000 C 
ATOM     37  F   UNL     1     -72.748 -53.964 -19.629  0.00  0.00    +0.000 F 
ATOM     38  F   UNL     1     -73.168 -56.073 -19.986  0.00  0.00    +0.000 F 
ATOM     39  F   UNL     1     -72.831 -55.359 -17.956  0.00  0.00    +0.000 F 
ENDBRANCH  33  36
ENDBRANCH  32  33
ENDBRANCH  30  31
ENDBRANCH  28  30
ENDBRANCH  27  28
ENDBRANCH  25  26
ENDBRANCH  23  24
ENDBRANCH  22  23
ENDBRANCH  20  21
ENDBRANCH   8  19
BRANCH   6  40
ATOM     40  O   UNL     1     -63.032 -46.951 -28.348  0.00  0.00    +0.000 OA
ATOM     41  H   UNL     1     -62.675 -46.203 -28.859  0.00  0.00    +0.000 HD
ENDBRANCH   6  40
BRANCH  18  42
ATOM     42  O   UNL     1     -66.080 -47.103 -38.660  0.00  0.00    +0.000 OA
ATOM     43  H   UNL     1     -65.236 -46.879 -39.089  0.00  0.00    +0.000 HD
ENDBRANCH  18  42
TORSDOF 12
ENDMDL
MODEL 6
REMARK VINA RESULT:      -5.7     27.064     32.740
REMARK  Name = Fulvestrant.pdbqt.pdb
REMARK  12 active torsions:
REMARK  status: ('A' for Active; 'I' for Inactive)
REMARK    1  A    between atoms: C_6  and  O_40
REMARK    2  A    between atoms: C_8  and  C_19
REMARK    3  A    between atoms: C_18  and  O_42
REMARK    4  A    between atoms: C_20  and  C_21
REMARK    5  A    between atoms: C_22  and  C_23
REMARK    6  A    between atoms: C_23  and  C_24
REMARK    7  A    between atoms: C_25  and  C_26
REMARK    8  A    between atoms: C_27  and  S_28
REMARK    9  A    between atoms: S_28  and  C_30
REMARK   10  A    between atoms: C_30  and  C_31
REMARK   11  A    between atoms: C_32  and  C_33
REMARK   12  A    between atoms: C_33  and  C_36
REMARK                            x       y       z     vdW  Elec       q    Type
REMARK                         _______ _______ _______ _____ _____    ______ ____
ROOT
ATOM      1  C   UNL     1     -59.111 -57.090 -59.054  0.00  0.00    +0.000 C 
ATOM      2  C   UNL     1     -60.318 -56.046 -58.892  0.00  0.00    +0.000 C 
ATOM      3  C   UNL     1     -57.979 -57.212 -58.080  0.00  0.00    +0.000 A 
ATOM      4  C   UNL     1     -58.086 -56.644 -56.649  0.00  0.00    +0.000 A 
ATOM      5  C   UNL     1     -60.338 -55.678 -57.481  0.00  0.00    +0.000 C 
ATOM      6  C   UNL     1     -61.549 -56.871 -59.330  0.00  0.00    +0.000 C 
ATOM      7  C   UNL     1     -59.667 -58.272 -59.644  0.00  0.00    +0.000 C 
ATOM      8  C   UNL     1     -56.708 -57.899 -58.431  0.00  0.00    +0.000 A 
ATOM      9  C   UNL     1     -59.296 -55.944 -56.430  0.00  0.00    +0.000 C 
ATOM     10  C   UNL     1     -61.162 -58.157 -59.794  0.00  0.00    +0.000 C 
ATOM     11  C   UNL     1     -60.082 -54.859 -59.860  0.00  0.00    +0.000 C 
ATOM     12  C   UNL     1     -57.008 -56.774 -55.629  0.00  0.00    +0.000 A 
ATOM     13  C   UNL     1     -55.821 -57.925 -57.328  0.00  0.00    +0.000 A 
ATOM     14  C   UNL     1     -55.819 -57.451 -55.992  0.00  0.00    +0.000 A 
ATOM     15  C   UNL     1     -57.118 -56.259 -54.340  0.00  0.00    +0.000 A 
ATOM     16  C   UNL     1     -54.764 -57.616 -55.108  0.00  0.00    +0.000 A 
ATOM     17  C   UNL     1     -56.064 -56.418 -53.438  0.00  0.00    +0.000 A 
ATOM     18  C   UNL     1     -54.904 -57.090 -53.828  0.00  0.00    +0.000 A 
ENDROOT
BRANCH   8  19
ATOM     19  C   UNL     1     -56.370 -58.299 -59.746  0.00  0.00    +0.000 C 
ATOM     20  C   UNL     1     -56.002 -58.752 -61.162  0.00  0.00    +0.000 C 
BRANCH  20  21
ATOM     21  C   UNL     1     -55.630 -59.232 -62.568  0.00  0.00    +0.000 C 
ATOM     22  C   UNL     1     -55.228 -59.720 -63.963  0.00  0.00    +0.000 C 
BRANCH  22  23
ATOM     23  C   UNL     1     -54.795 -60.215 -65.346  0.00  0.00    +0.000 C 
BRANCH  23  24
ATOM     24  C   UNL     1     -54.380 -60.740 -66.725  0.00  0.00    +0.000 C 
ATOM     25  C   UNL     1     -53.991 -61.247 -68.117  0.00  0.00    +0.000 C 
BRANCH  25  26
ATOM     26  C   UNL     1     -53.631 -61.737 -69.523  0.00  0.00    +0.000 C 
ATOM     27  C   UNL     1     -53.239 -62.241 -70.916  0.00  0.00    +0.000 C 
BRANCH  27  28
ATOM     28  S   UNL     1     -52.758 -62.829 -72.503  0.00  0.00    +0.000 S 
ATOM     29  O   UNL     1     -51.843 -63.859 -71.908  0.00  0.00    +0.000 OA
BRANCH  28  30
ATOM     30  C   UNL     1     -54.088 -63.979 -72.607  0.00  0.00    +0.000 C 
BRANCH  30  31
ATOM     31  C   UNL     1     -55.234 -64.990 -72.715  0.00  0.00    +0.000 C 
ATOM     32  C   UNL     1     -56.368 -66.016 -72.819  0.00  0.00    +0.000 C 
BRANCH  32  33
ATOM     33  C   UNL     1     -57.446 -67.004 -72.918  0.00  0.00    +0.000 C 
ATOM     34  F   UNL     1     -57.479 -67.707 -71.751  0.00  0.00    +0.000 F 
ATOM     35  F   UNL     1     -57.103 -67.900 -73.884  0.00  0.00    +0.000 F 
BRANCH  33  36
ATOM     36  C   UNL     1     -58.814 -66.380 -73.216  0.00  0.00    +0.000 C 
ATOM     37  F   UNL     1     -59.509 -66.111 -72.081  0.00  0.00    +0.000 F 
ATOM     38  F   UNL     1     -59.593 -67.193 -73.972  0.00  0.00    +0.000 F 
ATOM     39  F   UNL     1     -58.697 -65.208 -73.892  0.00  0.00    +0.000 F 
ENDBRANCH  33  36
ENDBRANCH  32  33
ENDBRANCH  30  31
ENDBRANCH  28  30
ENDBRANCH  27  28
ENDBRANCH  25  26
ENDBRANCH  23  24
ENDBRANCH  22  23
ENDBRANCH  20  21
ENDBRANCH   8  19
BRANCH   6  40
ATOM     40  O   UNL     1     -62.825 -56.605 -58.879  0.00  0.00    +0.000 OA
ATOM     41  H   UNL     1     -62.938 -55.665 -58.650  0.00  0.00    +0.000 HD
ENDBRANCH   6  40
BRANCH  18  42
ATOM     42  O   UNL     1     -53.899 -57.220 -52.912  0.00  0.00    +0.000 OA
ATOM     43  H   UNL     1     -53.050 -57.236 -53.387  0.00  0.00    +0.000 HD
ENDBRANCH  18  42
TORSDOF 12
ENDMDL
MODEL 7
REMARK VINA RESULT:      -5.7     13.000     21.150
REMARK  Name = Fulvestrant.pdbqt.pdb
REMARK  12 active torsions:
REMARK  status: ('A' for Active; 'I' for Inactive)
REMARK    1  A    between atoms: C_6  and  O_40
REMARK    2  A    between atoms: C_8  and  C_19
REMARK    3  A    between atoms: C_18  and  O_42
REMARK    4  A    between atoms: C_20  and  C_21
REMARK    5  A    between atoms: C_22  and  C_23
REMARK    6  A    between atoms: C_23  and  C_24
REMARK    7  A    between atoms: C_25  and  C_26
REMARK    8  A    between atoms: C_27  and  S_28
REMARK    9  A    between atoms: S_28  and  C_30
REMARK   10  A    between atoms: C_30  and  C_31
REMARK   11  A    between atoms: C_32  and  C_33
REMARK   12  A    between atoms: C_33  and  C_36
REMARK                            x       y       z     vdW  Elec       q    Type
REMARK                         _______ _______ _______ _____ _____    ______ ____
ROOT
ATOM      1  C   UNL     1     -58.844 -59.185 -25.813  0.00  0.00    +0.000 C 
ATOM      2  C   UNL     1     -58.897 -60.384 -24.748  0.00  0.00    +0.000 C 
ATOM      3  C   UNL     1     -59.467 -57.841 -25.583  0.00  0.00    +0.000 A 
ATOM      4  C   UNL     1     -59.849 -57.363 -24.167  0.00  0.00    +0.000 A 
ATOM      5  C   UNL     1     -59.178 -59.760 -23.460  0.00  0.00    +0.000 C 
ATOM      6  C   UNL     1     -57.479 -60.991 -24.842  0.00  0.00    +0.000 C 
ATOM      7  C   UNL     1     -57.573 -59.273 -26.467  0.00  0.00    +0.000 C 
ATOM      8  C   UNL     1     -59.731 -56.895 -26.700  0.00  0.00    +0.000 A 
ATOM      9  C   UNL     1     -59.633 -58.354 -23.181  0.00  0.00    +0.000 C 
ATOM     10  C   UNL     1     -56.721 -60.360 -25.864  0.00  0.00    +0.000 C 
ATOM     11  C   UNL     1     -59.964 -61.410 -25.209  0.00  0.00    +0.000 C 
ATOM     12  C   UNL     1     -60.431 -56.022 -23.880  0.00  0.00    +0.000 A 
ATOM     13  C   UNL     1     -60.275 -55.679 -26.221  0.00  0.00    +0.000 A 
ATOM     14  C   UNL     1     -60.651 -55.140 -24.965  0.00  0.00    +0.000 A 
ATOM     15  C   UNL     1     -60.770 -55.601 -22.596  0.00  0.00    +0.000 A 
ATOM     16  C   UNL     1     -61.191 -53.875 -24.790  0.00  0.00    +0.000 A 
ATOM     17  C   UNL     1     -61.314 -54.330 -22.404  0.00  0.00    +0.000 A 
ATOM     18  C   UNL     1     -61.519 -53.484 -23.496  0.00  0.00    +0.000 A 
ENDROOT
BRANCH   8  19
ATOM     19  C   UNL     1     -59.626 -57.247 -28.067  0.00  0.00    +0.000 C 
ATOM     20  C   UNL     1     -59.527 -57.643 -29.544  0.00  0.00    +0.000 C 
BRANCH  20  21
ATOM     21  C   UNL     1     -59.445 -58.062 -31.014  0.00  0.00    +0.000 C 
ATOM     22  C   UNL     1     -59.343 -58.457 -32.491  0.00  0.00    +0.000 C 
BRANCH  22  23
ATOM     23  C   UNL     1     -59.222 -58.824 -33.973  0.00  0.00    +0.000 C 
BRANCH  23  24
ATOM     24  C   UNL     1     -59.117 -59.223 -35.448  0.00  0.00    +0.000 C 
ATOM     25  C   UNL     1     -58.989 -59.648 -36.914  0.00  0.00    +0.000 C 
BRANCH  25  26
ATOM     26  C   UNL     1     -58.836 -60.096 -38.372  0.00  0.00    +0.000 C 
ATOM     27  C   UNL     1     -58.652 -60.562 -39.819  0.00  0.00    +0.000 C 
BRANCH  27  28
ATOM     28  S   UNL     1     -58.408 -61.109 -41.474  0.00  0.00    +0.000 S 
ATOM     29  O   UNL     1     -59.444 -62.185 -41.332  0.00  0.00    +0.000 OA
BRANCH  28  30
ATOM     30  C   UNL     1     -59.582 -59.979 -42.142  0.00  0.00    +0.000 C 
BRANCH  30  31
ATOM     31  C   UNL     1     -60.614 -59.014 -42.736  0.00  0.00    +0.000 C 
ATOM     32  C   UNL     1     -61.642 -58.036 -43.316  0.00  0.00    +0.000 C 
BRANCH  32  33
ATOM     33  C   UNL     1     -62.625 -57.096 -43.863  0.00  0.00    +0.000 C 
ATOM     34  F   UNL     1     -62.846 -57.431 -45.165  0.00  0.00    +0.000 F 
ATOM     35  F   UNL     1     -62.050 -55.861 -43.887  0.00  0.00    +0.000 F 
BRANCH  33  36
ATOM     36  C   UNL     1     -63.939 -57.069 -43.077  0.00  0.00    +0.000 C 
ATOM     37  F   UNL     1     -63.858 -56.278 -41.976  0.00  0.00    +0.000 F 
ATOM     38  F   UNL     1     -64.306 -58.303 -42.649  0.00  0.00    +0.000 F 
ATOM     39  F   UNL     1     -64.966 -56.593 -43.827  0.00  0.00    +0.000 F 
ENDBRANCH  33  36
ENDBRANCH  32  33
ENDBRANCH  30  31
ENDBRANCH  28  30
ENDBRANCH  27  28
ENDBRANCH  25  26
ENDBRANCH  23  24
ENDBRANCH  22  23
ENDBRANCH  20  21
ENDBRANCH   8  19
BRANCH   6  40
ATOM     40  O   UNL     1     -56.886 -61.665 -23.795  0.00  0.00    +0.000 OA
ATOM     41  H   UNL     1     -57.122 -61.276 -22.935  0.00  0.00    +0.000 HD
ENDBRANCH   6  40
BRANCH  18  42
ATOM     42  O   UNL     1     -62.055 -52.250 -23.260  0.00  0.00    +0.000 OA
ATOM     43  H   UNL     1     -61.348 -51.587 -23.344  0.00  0.00    +0.000 HD
ENDBRANCH  18  42
TORSDOF 12
ENDMDL
MODEL 8
REMARK VINA RESULT:      -5.6     36.684     41.985
REMARK  Name = Fulvestrant.pdbqt.pdb
REMARK  12 active torsions:
REMARK  status: ('A' for Active; 'I' for Inactive)
REMARK    1  A    between atoms: C_6  and  O_40
REMARK    2  A    between atoms: C_8  and  C_19
REMARK    3  A    between atoms: C_18  and  O_42
REMARK    4  A    between atoms: C_20  and  C_21
REMARK    5  A    between atoms: C_22  and  C_23
REMARK    6  A    between atoms: C_23  and  C_24
REMARK    7  A    between atoms: C_25  and  C_26
REMARK    8  A    between atoms: C_27  and  S_28
REMARK    9  A    between atoms: S_28  and  C_30
REMARK   10  A    between atoms: C_30  and  C_31
REMARK   11  A    between atoms: C_32  and  C_33
REMARK   12  A    between atoms: C_33  and  C_36
REMARK                            x       y       z     vdW  Elec       q    Type
REMARK                         _______ _______ _______ _____ _____    ______ ____
ROOT
ATOM      1  C   UNL     1     -47.657 -61.460 -81.785  0.00  0.00    +0.000 C 
ATOM      2  C   UNL     1     -46.172 -61.883 -82.219  0.00  0.00    +0.000 C 
ATOM      3  C   UNL     1     -48.329 -60.199 -82.238  0.00  0.00    +0.000 A 
ATOM      4  C   UNL     1     -47.821 -59.413 -83.465  0.00  0.00    +0.000 A 
ATOM      5  C   UNL     1     -45.881 -61.124 -83.431  0.00  0.00    +0.000 C 
ATOM      6  C   UNL     1     -46.303 -63.403 -82.462  0.00  0.00    +0.000 C 
ATOM      7  C   UNL     1     -48.417 -62.670 -81.690  0.00  0.00    +0.000 C 
ATOM      8  C   UNL     1     -49.525 -59.651 -81.543  0.00  0.00    +0.000 A 
ATOM      9  C   UNL     1     -46.639 -59.964 -84.013  0.00  0.00    +0.000 C 
ATOM     10  C   UNL     1     -47.604 -63.862 -82.124  0.00  0.00    +0.000 C 
ATOM     11  C   UNL     1     -45.209 -61.597 -81.038  0.00  0.00    +0.000 C 
ATOM     12  C   UNL     1     -48.477 -58.178 -83.980  0.00  0.00    +0.000 A 
ATOM     13  C   UNL     1     -50.000 -58.485 -82.190  0.00  0.00    +0.000 A 
ATOM     14  C   UNL     1     -49.624 -57.695 -83.306  0.00  0.00    +0.000 A 
ATOM     15  C   UNL     1     -48.009 -57.479 -85.091  0.00  0.00    +0.000 A 
ATOM     16  C   UNL     1     -50.295 -56.554 -83.715  0.00  0.00    +0.000 A 
ATOM     17  C   UNL     1     -48.675 -56.327 -85.515  0.00  0.00    +0.000 A 
ATOM     18  C   UNL     1     -49.804 -55.878 -84.827  0.00  0.00    +0.000 A 
ENDROOT
BRANCH   8  19
ATOM     19  C   UNL     1     -49.997 -60.131 -80.298  0.00  0.00    +0.000 C 
ATOM     20  C   UNL     1     -50.489 -60.645 -78.942  0.00  0.00    +0.000 C 
BRANCH  20  21
ATOM     21  C   UNL     1     -50.955 -61.154 -77.575  0.00  0.00    +0.000 C 
ATOM     22  C   UNL     1     -51.427 -61.692 -76.221  0.00  0.00    +0.000 C 
BRANCH  22  23
ATOM     23  C   UNL     1     -51.910 -62.259 -74.882  0.00  0.00    +0.000 C 
BRANCH  23  24
ATOM     24  C   UNL     1     -52.403 -62.793 -73.533  0.00  0.00    +0.000 C 
ATOM     25  C   UNL     1     -52.919 -63.348 -72.202  0.00  0.00    +0.000 C 
BRANCH  25  26
ATOM     26  C   UNL     1     -53.461 -63.921 -70.888  0.00  0.00    +0.000 C 
ATOM     27  C   UNL     1     -54.032 -64.506 -69.593  0.00  0.00    +0.000 C 
BRANCH  27  28
ATOM     28  S   UNL     1     -54.719 -65.185 -68.122  0.00  0.00    +0.000 S 
ATOM     29  O   UNL     1     -53.472 -64.897 -67.339  0.00  0.00    +0.000 OA
BRANCH  28  30
ATOM     30  C   UNL     1     -55.457 -63.665 -67.628  0.00  0.00    +0.000 C 
BRANCH  30  31
ATOM     31  C   UNL     1     -56.094 -62.347 -67.174  0.00  0.00    +0.000 C 
ATOM     32  C   UNL     1     -56.735 -61.036 -66.704  0.00  0.00    +0.000 C 
BRANCH  32  33
ATOM     33  C   UNL     1     -57.350 -59.788 -66.246  0.00  0.00    +0.000 C 
ATOM     34  F   UNL     1     -58.700 -59.906 -66.393  0.00  0.00    +0.000 F 
ATOM     35  F   UNL     1     -56.966 -58.797 -67.099  0.00  0.00    +0.000 F 
BRANCH  33  36
ATOM     36  C   UNL     1     -56.990 -59.429 -64.800  0.00  0.00    +0.000 C 
ATOM     37  F   UNL     1     -58.094 -59.238 -64.033  0.00  0.00    +0.000 F 
ATOM     38  F   UNL     1     -56.255 -58.293 -64.722  0.00  0.00    +0.000 F 
ATOM     39  F   UNL     1     -56.264 -60.409 -64.204  0.00  0.00    +0.000 F 
ENDBRANCH  33  36
ENDBRANCH  32  33
ENDBRANCH  30  31
ENDBRANCH  28  30
ENDBRANCH  27  28
ENDBRANCH  25  26
ENDBRANCH  23  24
ENDBRANCH  22  23
ENDBRANCH  20  21
ENDBRANCH   8  19
BRANCH   6  40
ATOM     40  O   UNL     1     -45.479 -64.095 -83.324  0.00  0.00    +0.000 OA
ATOM     41  H   UNL     1     -45.674 -63.887 -84.255  0.00  0.00    +0.000 HD
ENDBRANCH   6  40
BRANCH  18  42
ATOM     42  O   UNL     1     -50.421 -54.745 -85.278  0.00  0.00    +0.000 OA
ATOM     43  H   UNL     1     -51.079 -55.001 -85.948  0.00  0.00    +0.000 HD
ENDBRANCH  18  42
TORSDOF 12
ENDMDL
MODEL 9
REMARK VINA RESULT:      -5.6     16.694     21.484
REMARK  Name = Fulvestrant.pdbqt.pdb
REMARK  12 active torsions:
REMARK  status: ('A' for Active; 'I' for Inactive)
REMARK    1  A    between atoms: C_6  and  O_40
REMARK    2  A    between atoms: C_8  and  C_19
REMARK    3  A    between atoms: C_18  and  O_42
REMARK    4  A    between atoms: C_20  and  C_21
REMARK    5  A    between atoms: C_22  and  C_23
REMARK    6  A    between atoms: C_23  and  C_24
REMARK    7  A    between atoms: C_25  and  C_26
REMARK    8  A    between atoms: C_27  and  S_28
REMARK    9  A    between atoms: S_28  and  C_30
REMARK   10  A    between atoms: C_30  and  C_31
REMARK   11  A    between atoms: C_32  and  C_33
REMARK   12  A    between atoms: C_33  and  C_36
REMARK                            x       y       z     vdW  Elec       q    Type
REMARK                         _______ _______ _______ _____ _____    ______ ____
ROOT
ATOM      1  C   UNL     1     -55.545 -42.774 -62.774  0.00  0.00    +0.000 C 
ATOM      2  C   UNL     1     -54.274 -41.902 -62.329  0.00  0.00    +0.000 C 
ATOM      3  C   UNL     1     -56.243 -42.617 -64.090  0.00  0.00    +0.000 A 
ATOM      4  C   UNL     1     -55.565 -41.905 -65.280  0.00  0.00    +0.000 A 
ATOM      5  C   UNL     1     -53.701 -41.378 -63.565  0.00  0.00    +0.000 C 
ATOM      6  C   UNL     1     -53.372 -42.941 -61.626  0.00  0.00    +0.000 C 
ATOM      7  C   UNL     1     -55.355 -44.085 -62.226  0.00  0.00    +0.000 C 
ATOM      8  C   UNL     1     -57.611 -43.151 -64.324  0.00  0.00    +0.000 A 
ATOM      9  C   UNL     1     -54.301 -41.365 -64.943  0.00  0.00    +0.000 C 
ATOM     10  C   UNL     1     -54.018 -44.204 -61.543  0.00  0.00    +0.000 C 
ATOM     11  C   UNL     1     -54.742 -40.815 -61.328  0.00  0.00    +0.000 C 
ATOM     12  C   UNL     1     -56.198 -41.759 -66.620  0.00  0.00    +0.000 A 
ATOM     13  C   UNL     1     -58.028 -42.919 -65.658  0.00  0.00    +0.000 A 
ATOM     14  C   UNL     1     -57.493 -42.296 -66.814  0.00  0.00    +0.000 A 
ATOM     15  C   UNL     1     -55.574 -41.116 -67.687  0.00  0.00    +0.000 A 
ATOM     16  C   UNL     1     -58.158 -42.203 -68.026  0.00  0.00    +0.000 A 
ATOM     17  C   UNL     1     -56.231 -41.015 -68.915  0.00  0.00    +0.000 A 
ATOM     18  C   UNL     1     -57.509 -41.555 -69.072  0.00  0.00    +0.000 A 
ENDROOT
BRANCH   8  19
ATOM     19  C   UNL     1     -58.446 -43.650 -63.296  0.00  0.00    +0.000 C 
ATOM     20  C   UNL     1     -59.363 -44.196 -62.197  0.00  0.00    +0.000 C 
BRANCH  20  21
ATOM     21  C   UNL     1     -60.300 -44.748 -61.120  0.00  0.00    +0.000 C 
ATOM     22  C   UNL     1     -61.240 -45.271 -60.029  0.00  0.00    +0.000 C 
BRANCH  22  23
ATOM     23  C   UNL     1     -62.179 -45.762 -58.923  0.00  0.00    +0.000 C 
BRANCH  23  24
ATOM     24  C   UNL     1     -63.142 -46.265 -57.842  0.00  0.00    +0.000 C 
ATOM     25  C   UNL     1     -64.077 -46.768 -56.739  0.00  0.00    +0.000 C 
BRANCH  25  26
ATOM     26  C   UNL     1     -64.985 -47.275 -55.613  0.00  0.00    +0.000 C 
ATOM     27  C   UNL     1     -65.865 -47.806 -54.477  0.00  0.00    +0.000 C 
BRANCH  27  28
ATOM     28  S   UNL     1     -66.854 -48.441 -53.166  0.00  0.00    +0.000 S 
ATOM     29  O   UNL     1     -65.981 -49.652 -53.018  0.00  0.00    +0.000 OA
BRANCH  28  30
ATOM     30  C   UNL     1     -65.964 -47.570 -51.921  0.00  0.00    +0.000 C 
BRANCH  30  31
ATOM     31  C   UNL     1     -65.180 -46.797 -50.855  0.00  0.00    +0.000 C 
ATOM     32  C   UNL     1     -64.380 -46.034 -49.793  0.00  0.00    +0.000 C 
BRANCH  32  33
ATOM     33  C   UNL     1     -63.607 -45.310 -48.780  0.00  0.00    +0.000 C 
ATOM     34  F   UNL     1     -64.380 -45.201 -47.662  0.00  0.00    +0.000 F 
ATOM     35  F   UNL     1     -63.420 -44.038 -49.230  0.00  0.00    +0.000 F 
BRANCH  33  36
ATOM     36  C   UNL     1     -62.266 -45.974 -48.452  0.00  0.00    +0.000 C 
ATOM     37  F   UNL     1     -61.821 -46.753 -49.471  0.00  0.00    +0.000 F 
ATOM     38  F   UNL     1     -62.342 -46.766 -47.353  0.00  0.00    +0.000 F 
ATOM     39  F   UNL     1     -61.296 -45.056 -48.208  0.00  0.00    +0.000 F 
ENDBRANCH  33  36
ENDBRANCH  32  33
ENDBRANCH  30  31
ENDBRANCH  28  30
ENDBRANCH  27  28
ENDBRANCH  25  26
ENDBRANCH  23  24
ENDBRANCH  22  23
ENDBRANCH  20  21
ENDBRANCH   8  19
BRANCH   6  40
ATOM     40  O   UNL     1     -52.001 -42.810 -61.551  0.00  0.00    +0.000 OA
ATOM     41  H   UNL     1     -51.693 -42.764 -60.628  0.00  0.00    +0.000 HD
ENDBRANCH   6  40
BRANCH  18  42
ATOM     42  O   UNL     1     -58.112 -41.431 -70.292  0.00  0.00    +0.000 OA
ATOM     43  H   UNL     1     -58.633 -40.608 -70.295  0.00  0.00    +0.000 HD
ENDBRANCH  18  42
TORSDOF 12
ENDMDL
