MODEL 1
REMARK VINA RESULT:      -6.4      0.000      0.000
REMARK  Name = Gefitinib.pdbqt.pdb
REMARK  6 active torsions:
REMARK  status: ('A' for Active; 'I' for Inactive)
REMARK    1  A    between atoms: C_3  and  O_11
REMARK    2  A    between atoms: C_6  and  O_21
REMARK    3  A    between atoms: O_11  and  C_12
REMARK    4  A    between atoms: C_13  and  C_14
REMARK    5  A    between atoms: C_14  and  N_15
REMARK    6  A    between atoms: N_23  and  C_25
REMARK                            x       y       z     vdW  Elec       q    Type
REMARK                         _______ _______ _______ _____ _____    ______ ____
ROOT
ATOM      1  N   UNL     1     -56.411 -63.176 -66.919  0.00  0.00    +0.000 NA
ATOM      2  N   UNL     1     -55.550 -61.138 -67.803  0.00  0.00    +0.000 NA
ATOM      3  C   UNL     1     -59.599 -61.165 -65.159  0.00  0.00    +0.000 A 
ATOM      4  C   UNL     1     -57.565 -61.121 -66.514  0.00  0.00    +0.000 A 
ATOM      5  C   UNL     1     -58.648 -60.466 -65.904  0.00  0.00    +0.000 A 
ATOM      6  C   UNL     1     -59.467 -62.547 -65.025  0.00  0.00    +0.000 A 
ATOM      7  C   UNL     1     -57.425 -62.503 -66.373  0.00  0.00    +0.000 A 
ATOM      8  C   UNL     1     -58.381 -63.187 -65.634  0.00  0.00    +0.000 A 
ATOM      9  C   UNL     1     -56.580 -60.465 -67.267  0.00  0.00    +0.000 A 
ATOM     10  C   UNL     1     -55.513 -62.461 -67.608  0.00  0.00    +0.000 A 
ATOM     11  N   UNL     1     -56.659 -59.058 -67.425  0.00  0.00    +0.000 N 
ATOM     12  H   UNL     1     -57.600 -58.770 -67.675  0.00  0.00    +0.000 HD
ENDROOT
BRANCH  11  13
ATOM     13  C   UNL     1     -55.683 -58.189 -67.961  0.00  0.00    +0.000 A 
ATOM     14  C   UNL     1     -54.667 -57.713 -67.123  0.00  0.00    +0.000 A 
ATOM     15  C   UNL     1     -53.625 -56.940 -67.630  0.00  0.00    +0.000 A 
ATOM     16 CL   UNL     1     -52.425 -56.356 -66.547  0.00  0.00    +0.000 Cl
ATOM     17  C   UNL     1     -53.571 -56.657 -68.990  0.00  0.00    +0.000 A 
ATOM     18  F   UNL     1     -52.575 -55.915 -69.496  0.00  0.00    +0.000 F 
ATOM     19  C   UNL     1     -54.545 -57.150 -69.848  0.00  0.00    +0.000 A 
ATOM     20  C   UNL     1     -55.581 -57.925 -69.331  0.00  0.00    +0.000 A 
ENDBRANCH  11  13
BRANCH   6  21
ATOM     21  O   UNL     1     -60.425 -63.197 -64.282  0.00  0.00    +0.000 OA
ATOM     22  C   UNL     1     -61.184 -64.150 -64.972  0.00  0.00    +0.000 C 
ENDBRANCH   6  21
BRANCH   3  23
ATOM     23  O   UNL     1     -60.671 -60.561 -64.547  0.00  0.00    +0.000 OA
BRANCH  23  24
ATOM     24  C   UNL     1     -60.359 -59.807 -63.495  0.00  0.00    +0.000 C 
ATOM     25  C   UNL     1     -60.015 -58.930 -62.287  0.00  0.00    +0.000 C 
BRANCH  25  26
ATOM     26  C   UNL     1     -59.702 -58.036 -61.082  0.00  0.00    +0.000 C 
BRANCH  26  27
ATOM     27  N   UNL     1     -59.391 -57.183 -59.943  0.00  0.00    +0.000 N 
ATOM     28  C   UNL     1     -58.418 -56.158 -60.430  0.00  0.00    +0.000 C 
ATOM     29  C   UNL     1     -58.638 -54.626 -60.655  0.00  0.00    +0.000 C 
ATOM     30  O   UNL     1     -59.686 -53.786 -60.506  0.00  0.00    +0.000 OA
ATOM     31  C   UNL     1     -60.564 -54.710 -60.068  0.00  0.00    +0.000 C 
ATOM     32  C   UNL     1     -60.540 -56.243 -59.785  0.00  0.00    +0.000 C 
ENDBRANCH  26  27
ENDBRANCH  25  26
ENDBRANCH  23  24
ENDBRANCH   3  23
TORSDOF 6
ENDMDL
MODEL 2
REMARK VINA RESULT:      -5.8     49.005     52.006
REMARK  Name = Gefitinib.pdbqt.pdb
REMARK  6 active torsions:
REMARK  status: ('A' for Active; 'I' for Inactive)
REMARK    1  A    between atoms: C_3  and  O_11
REMARK    2  A    between atoms: C_6  and  O_21
REMARK    3  A    between atoms: O_11  and  C_12
REMARK    4  A    between atoms: C_13  and  C_14
REMARK    5  A    between atoms: C_14  and  N_15
REMARK    6  A    between atoms: N_23  and  C_25
REMARK                            x       y       z     vdW  Elec       q    Type
REMARK                         _______ _______ _______ _____ _____    ______ ____
ROOT
ATOM      1  N   UNL     1     -61.623 -59.140 -16.687  0.00  0.00    +0.000 NA
ATOM      2  N   UNL     1     -62.647 -56.989 -16.632  0.00  0.00    +0.000 NA
ATOM      3  C   UNL     1     -64.768 -60.786 -14.517  0.00  0.00    +0.000 A 
ATOM      4  C   UNL     1     -63.730 -58.851 -15.592  0.00  0.00    +0.000 A 
ATOM      5  C   UNL     1     -64.776 -59.432 -14.855  0.00  0.00    +0.000 A 
ATOM      6  C   UNL     1     -63.695 -61.577 -14.928  0.00  0.00    +0.000 A 
ATOM      7  C   UNL     1     -62.649 -59.639 -15.996  0.00  0.00    +0.000 A 
ATOM      8  C   UNL     1     -62.657 -60.985 -15.658  0.00  0.00    +0.000 A 
ATOM      9  C   UNL     1     -63.687 -57.497 -15.952  0.00  0.00    +0.000 A 
ATOM     10  C   UNL     1     -61.664 -57.832 -16.970  0.00  0.00    +0.000 A 
ATOM     11  N   UNL     1     -64.747 -56.644 -15.550  0.00  0.00    +0.000 N 
ATOM     12  H   UNL     1     -65.650 -57.071 -15.735  0.00  0.00    +0.000 HD
ENDROOT
BRANCH  11  13
ATOM     13  C   UNL     1     -64.804 -55.235 -15.628  0.00  0.00    +0.000 A 
ATOM     14  C   UNL     1     -65.430 -54.643 -16.731  0.00  0.00    +0.000 A 
ATOM     15  C   UNL     1     -65.603 -53.263 -16.801  0.00  0.00    +0.000 A 
ATOM     16 CL   UNL     1     -66.348 -52.592 -18.196  0.00  0.00    +0.000 Cl
ATOM     17  C   UNL     1     -65.176 -52.458 -15.751  0.00  0.00    +0.000 A 
ATOM     18  F   UNL     1     -65.334 -51.127 -15.800  0.00  0.00    +0.000 F 
ATOM     19  C   UNL     1     -64.587 -53.024 -14.628  0.00  0.00    +0.000 A 
ATOM     20  C   UNL     1     -64.422 -54.406 -14.567  0.00  0.00    +0.000 A 
ENDBRANCH  11  13
BRANCH   6  21
ATOM     21  O   UNL     1     -63.726 -62.905 -14.573  0.00  0.00    +0.000 OA
ATOM     22  C   UNL     1     -63.909 -63.810 -15.626  0.00  0.00    +0.000 C 
ENDBRANCH   6  21
BRANCH   3  23
ATOM     23  O   UNL     1     -65.771 -61.390 -13.798  0.00  0.00    +0.000 OA
BRANCH  23  24
ATOM     24  C   UNL     1     -65.945 -60.906 -12.571  0.00  0.00    +0.000 C 
ATOM     25  C   UNL     1     -66.147 -60.331 -11.164  0.00  0.00    +0.000 C 
BRANCH  25  26
ATOM     26  C   UNL     1     -66.356 -59.726  -9.772  0.00  0.00    +0.000 C 
BRANCH  26  27
ATOM     27  N   UNL     1     -66.546 -59.139  -8.453  0.00  0.00    +0.000 N 
ATOM     28  C   UNL     1     -65.455 -58.133  -8.272  0.00  0.00    +0.000 C 
ATOM     29  C   UNL     1     -65.557 -56.573  -8.235  0.00  0.00    +0.000 C 
ATOM     30  O   UNL     1     -66.568 -55.685  -8.352  0.00  0.00    +0.000 OA
ATOM     31  C   UNL     1     -67.552 -56.591  -8.516  0.00  0.00    +0.000 C 
ATOM     32  C   UNL     1     -67.654 -58.145  -8.581  0.00  0.00    +0.000 C 
ENDBRANCH  26  27
ENDBRANCH  25  26
ENDBRANCH  23  24
ENDBRANCH   3  23
TORSDOF 6
ENDMDL
MODEL 3
REMARK VINA RESULT:      -5.6     14.864     16.824
REMARK  Name = Gefitinib.pdbqt.pdb
REMARK  6 active torsions:
REMARK  status: ('A' for Active; 'I' for Inactive)
REMARK    1  A    between atoms: C_3  and  O_11
REMARK    2  A    between atoms: C_6  and  O_21
REMARK    3  A    between atoms: O_11  and  C_12
REMARK    4  A    between atoms: C_13  and  C_14
REMARK    5  A    between atoms: C_14  and  N_15
REMARK    6  A    between atoms: N_23  and  C_25
REMARK                            x       y       z     vdW  Elec       q    Type
REMARK                         _______ _______ _______ _____ _____    ______ ____
ROOT
ATOM      1  N   UNL     1     -68.815 -46.469 -59.839  0.00  0.00    +0.000 NA
ATOM      2  N   UNL     1     -66.527 -45.939 -60.243  0.00  0.00    +0.000 NA
ATOM      3  C   UNL     1     -67.749 -49.207 -56.894  0.00  0.00    +0.000 A 
ATOM      4  C   UNL     1     -67.100 -47.546 -58.567  0.00  0.00    +0.000 A 
ATOM      5  C   UNL     1     -66.768 -48.482 -57.572  0.00  0.00    +0.000 A 
ATOM      6  C   UNL     1     -69.089 -48.989 -57.213  0.00  0.00    +0.000 A 
ATOM      7  C   UNL     1     -68.441 -47.334 -58.896  0.00  0.00    +0.000 A 
ATOM      8  C   UNL     1     -69.407 -48.058 -58.209  0.00  0.00    +0.000 A 
ATOM      9  C   UNL     1     -66.155 -46.798 -59.281  0.00  0.00    +0.000 A 
ATOM     10  C   UNL     1     -67.839 -45.812 -60.477  0.00  0.00    +0.000 A 
ATOM     11  N   UNL     1     -64.776 -46.988 -59.006  0.00  0.00    +0.000 N 
ATOM     12  H   UNL     1     -64.600 -46.991 -58.005  0.00  0.00    +0.000 HD
ENDROOT
BRANCH  11  13
ATOM     13  C   UNL     1     -63.670 -46.498 -59.734  0.00  0.00    +0.000 A 
ATOM     14  C   UNL     1     -63.038 -45.327 -59.298  0.00  0.00    +0.000 A 
ATOM     15  C   UNL     1     -61.882 -44.862 -59.921  0.00  0.00    +0.000 A 
ATOM     16 CL   UNL     1     -61.171 -43.402 -59.363  0.00  0.00    +0.000 Cl
ATOM     17  C   UNL     1     -61.326 -45.582 -60.972  0.00  0.00    +0.000 A 
ATOM     18  F   UNL     1     -60.213 -45.151 -61.585  0.00  0.00    +0.000 F 
ATOM     19  C   UNL     1     -61.911 -46.767 -61.399  0.00  0.00    +0.000 A 
ATOM     20  C   UNL     1     -63.066 -47.224 -60.766  0.00  0.00    +0.000 A 
ENDBRANCH  11  13
BRANCH   6  21
ATOM     21  O   UNL     1     -70.023 -49.725 -56.522  0.00  0.00    +0.000 OA
ATOM     22  C   UNL     1     -70.643 -50.752 -57.244  0.00  0.00    +0.000 C 
ENDBRANCH   6  21
BRANCH   3  23
ATOM     23  O   UNL     1     -67.464 -50.129 -55.916  0.00  0.00    +0.000 OA
BRANCH  23  24
ATOM     24  C   UNL     1     -66.897 -49.624 -54.823  0.00  0.00    +0.000 C 
ATOM     25  C   UNL     1     -66.228 -49.048 -53.570  0.00  0.00    +0.000 C 
BRANCH  25  26
ATOM     26  C   UNL     1     -65.528 -48.480 -52.330  0.00  0.00    +0.000 C 
BRANCH  26  27
ATOM     27  N   UNL     1     -64.875 -47.942 -51.145  0.00  0.00    +0.000 N 
ATOM     28  C   UNL     1     -63.568 -47.375 -51.598  0.00  0.00    +0.000 C 
ATOM     29  C   UNL     1     -63.129 -45.877 -51.691  0.00  0.00    +0.000 C 
ATOM     30  O   UNL     1     -63.727 -44.695 -51.427  0.00  0.00    +0.000 OA
ATOM     31  C   UNL     1     -64.906 -45.206 -51.020  0.00  0.00    +0.000 C 
ATOM     32  C   UNL     1     -65.523 -46.628 -50.858  0.00  0.00    +0.000 C 
ENDBRANCH  26  27
ENDBRANCH  25  26
ENDBRANCH  23  24
ENDBRANCH   3  23
TORSDOF 6
ENDMDL
MODEL 4
REMARK VINA RESULT:      -5.5      4.601      7.615
REMARK  Name = Gefitinib.pdbqt.pdb
REMARK  6 active torsions:
REMARK  status: ('A' for Active; 'I' for Inactive)
REMARK    1  A    between atoms: C_3  and  O_11
REMARK    2  A    between atoms: C_6  and  O_21
REMARK    3  A    between atoms: O_11  and  C_12
REMARK    4  A    between atoms: C_13  and  C_14
REMARK    5  A    between atoms: C_14  and  N_15
REMARK    6  A    between atoms: N_23  and  C_25
REMARK                            x       y       z     vdW  Elec       q    Type
REMARK                         _______ _______ _______ _____ _____    ______ ____
ROOT
ATOM      1  N   UNL     1     -61.385 -61.701 -61.840  0.00  0.00    +0.000 NA
ATOM      2  N   UNL     1     -60.886 -59.819 -60.467  0.00  0.00    +0.000 NA
ATOM      3  C   UNL     1     -58.840 -60.309 -64.822  0.00  0.00    +0.000 A 
ATOM      4  C   UNL     1     -59.843 -60.042 -62.609  0.00  0.00    +0.000 A 
ATOM      5  C   UNL     1     -58.995 -59.592 -63.635  0.00  0.00    +0.000 A 
ATOM      6  C   UNL     1     -59.543 -61.503 -64.985  0.00  0.00    +0.000 A 
ATOM      7  C   UNL     1     -60.557 -61.232 -62.774  0.00  0.00    +0.000 A 
ATOM      8  C   UNL     1     -60.389 -61.938 -63.958  0.00  0.00    +0.000 A 
ATOM      9  C   UNL     1     -60.039 -59.357 -61.401  0.00  0.00    +0.000 A 
ATOM     10  C   UNL     1     -61.518 -60.969 -60.727  0.00  0.00    +0.000 A 
ATOM     11  N   UNL     1     -59.358 -58.132 -61.188  0.00  0.00    +0.000 N 
ATOM     12  H   UNL     1     -58.377 -58.210 -61.440  0.00  0.00    +0.000 HD
ENDROOT
BRANCH  11  13
ATOM     13  C   UNL     1     -59.562 -57.195 -60.150  0.00  0.00    +0.000 A 
ATOM     14  C   UNL     1     -58.908 -57.387 -58.927  0.00  0.00    +0.000 A 
ATOM     15  C   UNL     1     -58.996 -56.437 -57.912  0.00  0.00    +0.000 A 
ATOM     16 CL   UNL     1     -58.199 -56.743 -56.421  0.00  0.00    +0.000 Cl
ATOM     17  C   UNL     1     -59.716 -55.267 -58.120  0.00  0.00    +0.000 A 
ATOM     18  F   UNL     1     -59.812 -54.340 -57.154  0.00  0.00    +0.000 F 
ATOM     19  C   UNL     1     -60.342 -55.035 -59.338  0.00  0.00    +0.000 A 
ATOM     20  C   UNL     1     -60.245 -55.990 -60.347  0.00  0.00    +0.000 A 
ENDBRANCH  11  13
BRANCH   6  21
ATOM     21  O   UNL     1     -59.363 -62.177 -66.170  0.00  0.00    +0.000 OA
ATOM     22  C   UNL     1     -59.755 -63.521 -66.169  0.00  0.00    +0.000 C 
ENDBRANCH   6  21
BRANCH   3  23
ATOM     23  O   UNL     1     -58.021 -59.902 -65.847  0.00  0.00    +0.000 OA
BRANCH  23  24
ATOM     24  C   UNL     1     -56.950 -59.212 -65.463  0.00  0.00    +0.000 C 
ATOM     25  C   UNL     1     -55.727 -58.407 -65.010  0.00  0.00    +0.000 C 
BRANCH  25  26
ATOM     26  C   UNL     1     -54.524 -57.585 -64.534  0.00  0.00    +0.000 C 
BRANCH  26  27
ATOM     27  N   UNL     1     -53.381 -56.812 -64.068  0.00  0.00    +0.000 N 
ATOM     28  C   UNL     1     -53.406 -55.519 -64.817  0.00  0.00    +0.000 C 
ATOM     29  C   UNL     1     -53.733 -54.085 -64.287  0.00  0.00    +0.000 C 
ATOM     30  O   UNL     1     -54.078 -53.573 -63.085  0.00  0.00    +0.000 OA
ATOM     31  C   UNL     1     -54.057 -54.739 -62.409  0.00  0.00    +0.000 C 
ATOM     32  C   UNL     1     -53.764 -56.233 -62.746  0.00  0.00    +0.000 C 
ENDBRANCH  26  27
ENDBRANCH  25  26
ENDBRANCH  23  24
ENDBRANCH   3  23
TORSDOF 6
ENDMDL
MODEL 5
REMARK VINA RESULT:      -5.5     43.235     47.065
REMARK  Name = Gefitinib.pdbqt.pdb
REMARK  6 active torsions:
REMARK  status: ('A' for Active; 'I' for Inactive)
REMARK    1  A    between atoms: C_3  and  O_11
REMARK    2  A    between atoms: C_6  and  O_21
REMARK    3  A    between atoms: O_11  and  C_12
REMARK    4  A    between atoms: C_13  and  C_14
REMARK    5  A    between atoms: C_14  and  N_15
REMARK    6  A    between atoms: N_23  and  C_25
REMARK                            x       y       z     vdW  Elec       q    Type
REMARK                         _______ _______ _______ _____ _____    ______ ____
ROOT
ATOM      1  N   UNL     1     -63.224 -49.962 -20.911  0.00  0.00    +0.000 NA
ATOM      2  N   UNL     1     -61.887 -51.816 -21.584  0.00  0.00    +0.000 NA
ATOM      3  C   UNL     1     -65.420 -52.373 -18.328  0.00  0.00    +0.000 A 
ATOM      4  C   UNL     1     -63.615 -52.120 -19.957  0.00  0.00    +0.000 A 
ATOM      5  C   UNL     1     -64.377 -52.912 -19.081  0.00  0.00    +0.000 A 
ATOM      6  C   UNL     1     -65.704 -51.012 -18.448  0.00  0.00    +0.000 A 
ATOM      7  C   UNL     1     -63.905 -50.759 -20.087  0.00  0.00    +0.000 A 
ATOM      8  C   UNL     1     -64.941 -50.234 -19.327  0.00  0.00    +0.000 A 
ATOM      9  C   UNL     1     -62.563 -52.613 -20.741  0.00  0.00    +0.000 A 
ATOM     10  C   UNL     1     -62.246 -50.527 -21.629  0.00  0.00    +0.000 A 
ATOM     11  N   UNL     1     -62.238 -53.992 -20.667  0.00  0.00    +0.000 N 
ATOM     12  H   UNL     1     -62.189 -54.305 -19.702  0.00  0.00    +0.000 HD
ENDROOT
BRANCH  11  13
ATOM     13  C   UNL     1     -61.366 -54.724 -21.503  0.00  0.00    +0.000 A 
ATOM     14  C   UNL     1     -60.146 -55.172 -20.982  0.00  0.00    +0.000 A 
ATOM     15  C   UNL     1     -59.302 -55.985 -21.734  0.00  0.00    +0.000 A 
ATOM     16 CL   UNL     1     -57.802 -56.475 -21.054  0.00  0.00    +0.000 Cl
ATOM     17  C   UNL     1     -59.682 -56.385 -23.010  0.00  0.00    +0.000 A 
ATOM     18  F   UNL     1     -58.883 -57.167 -23.750  0.00  0.00    +0.000 F 
ATOM     19  C   UNL     1     -60.905 -55.986 -23.535  0.00  0.00    +0.000 A 
ATOM     20  C   UNL     1     -61.743 -55.176 -22.773  0.00  0.00    +0.000 A 
ENDBRANCH  11  13
BRANCH   6  21
ATOM     21  O   UNL     1     -66.740 -50.521 -17.688  0.00  0.00    +0.000 OA
ATOM     22  C   UNL     1     -67.953 -50.336 -18.363  0.00  0.00    +0.000 C 
ENDBRANCH   6  21
BRANCH   3  23
ATOM     23  O   UNL     1     -66.187 -53.114 -17.461  0.00  0.00    +0.000 OA
BRANCH  23  24
ATOM     24  C   UNL     1     -65.557 -54.146 -16.905  0.00  0.00    +0.000 C 
ATOM     25  C   UNL     1     -64.822 -55.337 -16.280  0.00  0.00    +0.000 C 
BRANCH  25  26
ATOM     26  C   UNL     1     -64.067 -56.529 -15.683  0.00  0.00    +0.000 C 
BRANCH  26  27
ATOM     27  N   UNL     1     -63.345 -57.667 -15.129  0.00  0.00    +0.000 N 
ATOM     28  C   UNL     1     -64.207 -58.233 -14.047  0.00  0.00    +0.000 C 
ATOM     29  C   UNL     1     -64.992 -59.585 -14.026  0.00  0.00    +0.000 C 
ATOM     30  O   UNL     1     -65.152 -60.604 -14.899  0.00  0.00    +0.000 OA
ATOM     31  C   UNL     1     -64.376 -60.093 -15.876  0.00  0.00    +0.000 C 
ATOM     32  C   UNL     1     -63.532 -58.799 -16.085  0.00  0.00    +0.000 C 
ENDBRANCH  26  27
ENDBRANCH  25  26
ENDBRANCH  23  24
ENDBRANCH   3  23
TORSDOF 6
ENDMDL
MODEL 6
REMARK VINA RESULT:      -5.4     11.034     13.084
REMARK  Name = Gefitinib.pdbqt.pdb
REMARK  6 active torsions:
REMARK  status: ('A' for Active; 'I' for Inactive)
REMARK    1  A    between atoms: C_3  and  O_11
REMARK    2  A    between atoms: C_6  and  O_21
REMARK    3  A    between atoms: O_11  and  C_12
REMARK    4  A    between atoms: C_13  and  C_14
REMARK    5  A    between atoms: C_14  and  N_15
REMARK    6  A    between atoms: N_23  and  C_25
REMARK                            x       y       z     vdW  Elec       q    Type
REMARK                         _______ _______ _______ _____ _____    ______ ____
ROOT
ATOM      1  N   UNL     1     -69.260 -60.547 -75.241  0.00  0.00    +0.000 NA
ATOM      2  N   UNL     1     -67.457 -60.589 -76.797  0.00  0.00    +0.000 NA
ATOM      3  C   UNL     1     -66.608 -60.313 -72.044  0.00  0.00    +0.000 A 
ATOM      4  C   UNL     1     -67.005 -60.433 -74.454  0.00  0.00    +0.000 A 
ATOM      5  C   UNL     1     -66.132 -60.360 -73.355  0.00  0.00    +0.000 A 
ATOM      6  C   UNL     1     -67.986 -60.335 -71.827  0.00  0.00    +0.000 A 
ATOM      7  C   UNL     1     -68.385 -60.466 -74.238  0.00  0.00    +0.000 A 
ATOM      8  C   UNL     1     -68.846 -60.413 -72.929  0.00  0.00    +0.000 A 
ATOM      9  C   UNL     1     -66.578 -60.489 -75.787  0.00  0.00    +0.000 A 
ATOM     10  C   UNL     1     -68.757 -60.611 -76.480  0.00  0.00    +0.000 A 
ATOM     11  N   UNL     1     -65.187 -60.482 -76.065  0.00  0.00    +0.000 N 
ATOM     12  H   UNL     1     -64.711 -59.761 -75.531  0.00  0.00    +0.000 HD
ENDROOT
BRANCH  11  13
ATOM     13  C   UNL     1     -64.548 -60.730 -77.300  0.00  0.00    +0.000 A 
ATOM     14  C   UNL     1     -63.791 -59.710 -77.888  0.00  0.00    +0.000 A 
ATOM     15  C   UNL     1     -63.058 -59.941 -79.050  0.00  0.00    +0.000 A 
ATOM     16 CL   UNL     1     -62.175 -58.640 -79.744  0.00  0.00    +0.000 Cl
ATOM     17  C   UNL     1     -63.051 -61.207 -79.623  0.00  0.00    +0.000 A 
ATOM     18  F   UNL     1     -62.352 -61.448 -80.742  0.00  0.00    +0.000 F 
ATOM     19  C   UNL     1     -63.762 -62.246 -79.038  0.00  0.00    +0.000 A 
ATOM     20  C   UNL     1     -64.489 -62.005 -77.874  0.00  0.00    +0.000 A 
ENDBRANCH  11  13
BRANCH   6  21
ATOM     21  O   UNL     1     -68.414 -60.289 -70.521  0.00  0.00    +0.000 OA
ATOM     22  C   UNL     1     -69.764 -59.969 -70.335  0.00  0.00    +0.000 C 
ENDBRANCH   6  21
BRANCH   3  23
ATOM     23  O   UNL     1     -65.787 -60.241 -70.945  0.00  0.00    +0.000 OA
BRANCH  23  24
ATOM     24  C   UNL     1     -65.023 -61.314 -70.750  0.00  0.00    +0.000 C 
ATOM     25  C   UNL     1     -64.129 -62.538 -70.528  0.00  0.00    +0.000 C 
BRANCH  25  26
ATOM     26  C   UNL     1     -63.206 -63.741 -70.304  0.00  0.00    +0.000 C 
BRANCH  26  27
ATOM     27  N   UNL     1     -62.318 -64.876 -70.095  0.00  0.00    +0.000 N 
ATOM     28  C   UNL     1     -61.289 -64.819 -71.178  0.00  0.00    +0.000 C 
ATOM     29  C   UNL     1     -59.768 -64.474 -71.068  0.00  0.00    +0.000 C 
ATOM     30  O   UNL     1     -58.943 -64.134 -70.053  0.00  0.00    +0.000 OA
ATOM     31  C   UNL     1     -59.870 -64.185 -69.077  0.00  0.00    +0.000 C 
ATOM     32  C   UNL     1     -61.394 -64.499 -68.983  0.00  0.00    +0.000 C 
ENDBRANCH  26  27
ENDBRANCH  25  26
ENDBRANCH  23  24
ENDBRANCH   3  23
TORSDOF 6
ENDMDL
MODEL 7
REMARK VINA RESULT:      -5.3     19.943     23.493
REMARK  Name = Gefitinib.pdbqt.pdb
REMARK  6 active torsions:
REMARK  status: ('A' for Active; 'I' for Inactive)
REMARK    1  A    between atoms: C_3  and  O_11
REMARK    2  A    between atoms: C_6  and  O_21
REMARK    3  A    between atoms: O_11  and  C_12
REMARK    4  A    between atoms: C_13  and  C_14
REMARK    5  A    between atoms: C_14  and  N_15
REMARK    6  A    between atoms: N_23  and  C_25
REMARK                            x       y       z     vdW  Elec       q    Type
REMARK                         _______ _______ _______ _____ _____    ______ ____
ROOT
ATOM      1  N   UNL     1     -63.184 -43.438 -45.278  0.00  0.00    +0.000 NA
ATOM      2  N   UNL     1     -63.034 -44.036 -47.579  0.00  0.00    +0.000 NA
ATOM      3  C   UNL     1     -60.009 -45.954 -44.330  0.00  0.00    +0.000 A 
ATOM      4  C   UNL     1     -61.511 -44.988 -45.999  0.00  0.00    +0.000 A 
ATOM      5  C   UNL     1     -60.445 -45.835 -45.650  0.00  0.00    +0.000 A 
ATOM      6  C   UNL     1     -60.648 -45.209 -43.339  0.00  0.00    +0.000 A 
ATOM      7  C   UNL     1     -62.160 -44.248 -45.008  0.00  0.00    +0.000 A 
ATOM      8  C   UNL     1     -61.712 -44.372 -43.699  0.00  0.00    +0.000 A 
ATOM      9  C   UNL     1     -61.992 -44.837 -47.307  0.00  0.00    +0.000 A 
ATOM     10  C   UNL     1     -63.581 -43.372 -46.554  0.00  0.00    +0.000 A 
ATOM     11  N   UNL     1     -61.386 -45.581 -48.353  0.00  0.00    +0.000 N 
ATOM     12  H   UNL     1     -60.374 -45.530 -48.298  0.00  0.00    +0.000 HD
ENDROOT
BRANCH  11  13
ATOM     13  C   UNL     1     -61.836 -45.731 -49.683  0.00  0.00    +0.000 A 
ATOM     14  C   UNL     1     -62.820 -46.687 -49.962  0.00  0.00    +0.000 A 
ATOM     15  C   UNL     1     -63.368 -46.800 -51.237  0.00  0.00    +0.000 A 
ATOM     16 CL   UNL     1     -64.549 -48.014 -51.526  0.00  0.00    +0.000 Cl
ATOM     17  C   UNL     1     -62.958 -45.935 -52.245  0.00  0.00    +0.000 A 
ATOM     18  F   UNL     1     -63.474 -46.028 -53.480  0.00  0.00    +0.000 F 
ATOM     19  C   UNL     1     -62.012 -44.953 -51.985  0.00  0.00    +0.000 A 
ATOM     20  C   UNL     1     -61.472 -44.847 -50.705  0.00  0.00    +0.000 A 
ENDBRANCH  11  13
BRANCH   6  21
ATOM     21  O   UNL     1     -60.188 -45.357 -42.052  0.00  0.00    +0.000 OA
ATOM     22  C   UNL     1     -61.073 -45.972 -41.158  0.00  0.00    +0.000 C 
ENDBRANCH   6  21
BRANCH   3  23
ATOM     23  O   UNL     1     -58.972 -46.771 -43.949  0.00  0.00    +0.000 OA
BRANCH  23  24
ATOM     24  C   UNL     1     -57.938 -46.784 -44.788  0.00  0.00    +0.000 C 
ATOM     25  C   UNL     1     -56.738 -46.793 -45.741  0.00  0.00    +0.000 C 
BRANCH  25  26
ATOM     26  C   UNL     1     -55.517 -46.792 -46.667  0.00  0.00    +0.000 C 
BRANCH  26  27
ATOM     27  N   UNL     1     -54.350 -46.801 -47.538  0.00  0.00    +0.000 N 
ATOM     28  C   UNL     1     -54.528 -47.949 -48.479  0.00  0.00    +0.000 C 
ATOM     29  C   UNL     1     -54.832 -47.923 -50.012  0.00  0.00    +0.000 C 
ATOM     30  O   UNL     1     -55.026 -46.945 -50.925  0.00  0.00    +0.000 OA
ATOM     31  C   UNL     1     -54.867 -45.909 -50.077  0.00  0.00    +0.000 C 
ATOM     32  C   UNL     1     -54.568 -45.731 -48.558  0.00  0.00    +0.000 C 
ENDBRANCH  26  27
ENDBRANCH  25  26
ENDBRANCH  23  24
ENDBRANCH   3  23
TORSDOF 6
ENDMDL
MODEL 8
REMARK VINA RESULT:      -5.3     39.335     43.510
REMARK  Name = Gefitinib.pdbqt.pdb
REMARK  6 active torsions:
REMARK  status: ('A' for Active; 'I' for Inactive)
REMARK    1  A    between atoms: C_3  and  O_11
REMARK    2  A    between atoms: C_6  and  O_21
REMARK    3  A    between atoms: O_11  and  C_12
REMARK    4  A    between atoms: C_13  and  C_14
REMARK    5  A    between atoms: C_14  and  N_15
REMARK    6  A    between atoms: N_23  and  C_25
REMARK                            x       y       z     vdW  Elec       q    Type
REMARK                         _______ _______ _______ _____ _____    ______ ____
ROOT
ATOM      1  N   UNL     1     -61.061 -55.071 -24.055  0.00  0.00    +0.000 NA
ATOM      2  N   UNL     1     -62.099 -55.030 -21.911  0.00  0.00    +0.000 NA
ATOM      3  C   UNL     1     -60.890 -50.915 -24.145  0.00  0.00    +0.000 A 
ATOM      4  C   UNL     1     -61.496 -52.978 -22.982  0.00  0.00    +0.000 A 
ATOM      5  C   UNL     1     -61.432 -51.575 -23.042  0.00  0.00    +0.000 A 
ATOM      6  C   UNL     1     -60.398 -51.672 -25.209  0.00  0.00    +0.000 A 
ATOM      7  C   UNL     1     -61.014 -53.738 -24.050  0.00  0.00    +0.000 A 
ATOM      8  C   UNL     1     -60.473 -53.068 -25.139  0.00  0.00    +0.000 A 
ATOM      9  C   UNL     1     -62.036 -53.689 -21.901  0.00  0.00    +0.000 A 
ATOM     10  C   UNL     1     -61.608 -55.660 -22.984  0.00  0.00    +0.000 A 
ATOM     11  N   UNL     1     -62.561 -52.969 -20.797  0.00  0.00    +0.000 N 
ATOM     12  H   UNL     1     -61.925 -52.233 -20.505  0.00  0.00    +0.000 HD
ENDROOT
BRANCH  11  13
ATOM     13  C   UNL     1     -63.320 -53.470 -19.717  0.00  0.00    +0.000 A 
ATOM     14  C   UNL     1     -62.673 -54.217 -18.724  0.00  0.00    +0.000 A 
ATOM     15  C   UNL     1     -63.358 -54.642 -17.588  0.00  0.00    +0.000 A 
ATOM     16 CL   UNL     1     -62.520 -55.584 -16.421  0.00  0.00    +0.000 Cl
ATOM     17  C   UNL     1     -64.694 -54.299 -17.417  0.00  0.00    +0.000 A 
ATOM     18  F   UNL     1     -65.370 -54.700 -16.330  0.00  0.00    +0.000 F 
ATOM     19  C   UNL     1     -65.348 -53.527 -18.368  0.00  0.00    +0.000 A 
ATOM     20  C   UNL     1     -64.653 -53.104 -19.499  0.00  0.00    +0.000 A 
ENDBRANCH  11  13
BRANCH   6  21
ATOM     21  O   UNL     1     -59.874 -50.982 -26.277  0.00  0.00    +0.000 OA
ATOM     22  C   UNL     1     -58.529 -51.243 -26.567  0.00  0.00    +0.000 C 
ENDBRANCH   6  21
BRANCH   3  23
ATOM     23  O   UNL     1     -60.809 -49.547 -24.241  0.00  0.00    +0.000 OA
BRANCH  23  24
ATOM     24  C   UNL     1     -61.808 -48.976 -24.910  0.00  0.00    +0.000 C 
ATOM     25  C   UNL     1     -62.950 -48.323 -25.696  0.00  0.00    +0.000 C 
BRANCH  25  26
ATOM     26  C   UNL     1     -64.077 -47.681 -26.513  0.00  0.00    +0.000 C 
BRANCH  26  27
ATOM     27  N   UNL     1     -65.140 -47.073 -27.301  0.00  0.00    +0.000 N 
ATOM     28  C   UNL     1     -64.646 -47.012 -28.710  0.00  0.00    +0.000 C 
ATOM     29  C   UNL     1     -65.120 -47.835 -29.952  0.00  0.00    +0.000 C 
ATOM     30  O   UNL     1     -66.046 -48.797 -30.156  0.00  0.00    +0.000 OA
ATOM     31  C   UNL     1     -66.492 -48.854 -28.884  0.00  0.00    +0.000 C 
ATOM     32  C   UNL     1     -66.159 -48.138 -27.540  0.00  0.00    +0.000 C 
ENDBRANCH  26  27
ENDBRANCH  25  26
ENDBRANCH  23  24
ENDBRANCH   3  23
TORSDOF 6
ENDMDL
MODEL 9
REMARK VINA RESULT:      -5.2     19.301     20.862
REMARK  Name = Gefitinib.pdbqt.pdb
REMARK  6 active torsions:
REMARK  status: ('A' for Active; 'I' for Inactive)
REMARK    1  A    between atoms: C_3  and  O_11
REMARK    2  A    between atoms: C_6  and  O_21
REMARK    3  A    between atoms: O_11  and  C_12
REMARK    4  A    between atoms: C_13  and  C_14
REMARK    5  A    between atoms: C_14  and  N_15
REMARK    6  A    between atoms: N_23  and  C_25
REMARK                            x       y       z     vdW  Elec       q    Type
REMARK                         _______ _______ _______ _____ _____    ______ ____
ROOT
ATOM      1  N   UNL     1     -53.833 -44.094 -53.350  0.00  0.00    +0.000 NA
ATOM      2  N   UNL     1     -53.583 -45.687 -51.596  0.00  0.00    +0.000 NA
ATOM      3  C   UNL     1     -57.970 -44.514 -53.259  0.00  0.00    +0.000 A 
ATOM      4  C   UNL     1     -55.768 -45.114 -52.384  0.00  0.00    +0.000 A 
ATOM      5  C   UNL     1     -57.168 -45.241 -52.379  0.00  0.00    +0.000 A 
ATOM      6  C   UNL     1     -57.362 -43.639 -54.159  0.00  0.00    +0.000 A 
ATOM      7  C   UNL     1     -55.156 -44.246 -53.291  0.00  0.00    +0.000 A 
ATOM      8  C   UNL     1     -55.967 -43.524 -54.157  0.00  0.00    +0.000 A 
ATOM      9  C   UNL     1     -54.917 -45.825 -51.527  0.00  0.00    +0.000 A 
ATOM     10  C   UNL     1     -53.102 -44.827 -52.501  0.00  0.00    +0.000 A 
ATOM     11  N   UNL     1     -55.481 -46.739 -50.600  0.00  0.00    +0.000 N 
ATOM     12  H   UNL     1     -56.271 -46.325 -50.114  0.00  0.00    +0.000 HD
ENDROOT
BRANCH  11  13
ATOM     13  C   UNL     1     -54.809 -47.689 -49.799  0.00  0.00    +0.000 A 
ATOM     14  C   UNL     1     -54.804 -47.521 -48.409  0.00  0.00    +0.000 A 
ATOM     15  C   UNL     1     -54.246 -48.484 -47.573  0.00  0.00    +0.000 A 
ATOM     16 CL   UNL     1     -54.240 -48.207 -45.878  0.00  0.00    +0.000 Cl
ATOM     17  C   UNL     1     -53.709 -49.645 -48.118  0.00  0.00    +0.000 A 
ATOM     18  F   UNL     1     -53.166 -50.585 -47.329  0.00  0.00    +0.000 F 
ATOM     19  C   UNL     1     -53.736 -49.854 -49.491  0.00  0.00    +0.000 A 
ATOM     20  C   UNL     1     -54.300 -48.885 -50.317  0.00  0.00    +0.000 A 
ENDBRANCH  11  13
BRANCH   6  21
ATOM     21  O   UNL     1     -58.190 -42.942 -55.009  0.00  0.00    +0.000 OA
ATOM     22  C   UNL     1     -58.001 -41.555 -55.038  0.00  0.00    +0.000 C 
ENDBRANCH   6  21
BRANCH   3  23
ATOM     23  O   UNL     1     -59.341 -44.611 -53.285  0.00  0.00    +0.000 OA
BRANCH  23  24
ATOM     24  C   UNL     1     -59.924 -44.565 -52.090  0.00  0.00    +0.000 C 
ATOM     25  C   UNL     1     -60.604 -44.528 -50.717  0.00  0.00    +0.000 C 
BRANCH  25  26
ATOM     26  C   UNL     1     -61.295 -44.524 -49.349  0.00  0.00    +0.000 C 
BRANCH  26  27
ATOM     27  N   UNL     1     -61.942 -44.530 -48.044  0.00  0.00    +0.000 N 
ATOM     28  C   UNL     1     -61.318 -45.640 -47.263  0.00  0.00    +0.000 C 
ATOM     29  C   UNL     1     -60.357 -45.554 -46.033  0.00  0.00    +0.000 C 
ATOM     30  O   UNL     1     -59.807 -44.541 -45.327  0.00  0.00    +0.000 OA
ATOM     31  C   UNL     1     -60.369 -43.539 -46.032  0.00  0.00    +0.000 C 
ATOM     32  C   UNL     1     -61.327 -43.421 -47.256  0.00  0.00    +0.000 C 
ENDBRANCH  26  27
ENDBRANCH  25  26
ENDBRANCH  23  24
ENDBRANCH   3  23
TORSDOF 6
ENDMDL
