MODEL 1
REMARK VINA RESULT:      -5.4      0.000      0.000
REMARK  Name = Genistein.pdbqt.pdb
REMARK  4 active torsions:
REMARK  status: ('A' for Active; 'I' for Inactive)
REMARK    1  A    between atoms: C_4  and  C_12
REMARK    2  A    between atoms: C_7  and  O_20
REMARK    3  A    between atoms: C_11  and  O_22
REMARK    4  A    between atoms: C_17  and  O_18
REMARK                            x       y       z     vdW  Elec       q    Type
REMARK                         _______ _______ _______ _____ _____    ______ ____
ROOT
ATOM      1  O   UNL     1     -65.032 -47.866 -60.770  0.00  0.00    +0.000 OA
ATOM      2  O   UNL     1     -65.321 -46.622 -56.786  0.00  0.00    +0.000 OA
ATOM      3  C   UNL     1     -64.008 -46.836 -58.757  0.00  0.00    +0.000 A 
ATOM      4  C   UNL     1     -66.418 -47.638 -58.683  0.00  0.00    +0.000 A 
ATOM      5  C   UNL     1     -63.955 -47.275 -60.113  0.00  0.00    +0.000 A 
ATOM      6  C   UNL     1     -65.275 -46.999 -57.951  0.00  0.00    +0.000 A 
ATOM      7  C   UNL     1     -62.875 -46.253 -58.182  0.00  0.00    +0.000 A 
ATOM      8  C   UNL     1     -66.012 -47.904 -59.884  0.00  0.00    +0.000 A 
ATOM      9  C   UNL     1     -62.786 -47.125 -60.855  0.00  0.00    +0.000 A 
ATOM     10  C   UNL     1     -61.709 -46.107 -58.932  0.00  0.00    +0.000 A 
ATOM     11  C   UNL     1     -61.676 -46.541 -60.255  0.00  0.00    +0.000 A 
ENDROOT
BRANCH   4  12
ATOM     12  C   UNL     1     -67.751 -47.918 -58.154  0.00  0.00    +0.000 A 
ATOM     13  C   UNL     1     -68.870 -47.215 -58.607  0.00  0.00    +0.000 A 
ATOM     14  C   UNL     1     -67.936 -48.903 -57.176  0.00  0.00    +0.000 A 
ATOM     15  C   UNL     1     -70.142 -47.482 -58.103  0.00  0.00    +0.000 A 
ATOM     16  C   UNL     1     -69.202 -49.179 -56.663  0.00  0.00    +0.000 A 
ATOM     17  C   UNL     1     -70.296 -48.465 -57.133  0.00  0.00    +0.000 A 
BRANCH  17  18
ATOM     18  O   UNL     1     -71.527 -48.751 -56.619  0.00  0.00    +0.000 OA
ATOM     19  H   UNL     1     -72.104 -47.979 -56.763  0.00  0.00    +0.000 HD
ENDBRANCH  17  18
ENDBRANCH   4  12
BRANCH   7  20
ATOM     20  O   UNL     1     -62.833 -45.803 -56.890  0.00  0.00    +0.000 OA
ATOM     21  H   UNL     1     -62.283 -46.422 -56.358  0.00  0.00    +0.000 HD
ENDBRANCH   7  20
BRANCH  11  22
ATOM     22  O   UNL     1     -60.540 -46.402 -60.999  0.00  0.00    +0.000 OA
ATOM     23  H   UNL     1     -59.892 -47.060 -60.691  0.00  0.00    +0.000 HD
ENDBRANCH  11  22
TORSDOF 4
ENDMDL
MODEL 2
REMARK VINA RESULT:      -5.3     29.295     32.043
REMARK  Name = Genistein.pdbqt.pdb
REMARK  4 active torsions:
REMARK  status: ('A' for Active; 'I' for Inactive)
REMARK    1  A    between atoms: C_4  and  C_12
REMARK    2  A    between atoms: C_7  and  O_20
REMARK    3  A    between atoms: C_11  and  O_22
REMARK    4  A    between atoms: C_17  and  O_18
REMARK                            x       y       z     vdW  Elec       q    Type
REMARK                         _______ _______ _______ _____ _____    ______ ____
ROOT
ATOM      1  O   UNL     1     -71.833 -59.206 -30.380  0.00  0.00    +0.000 OA
ATOM      2  O   UNL     1     -70.613 -55.668 -28.508  0.00  0.00    +0.000 OA
ATOM      3  C   UNL     1     -70.740 -56.980 -30.488  0.00  0.00    +0.000 A 
ATOM      4  C   UNL     1     -71.697 -57.816 -28.288  0.00  0.00    +0.000 A 
ATOM      5  C   UNL     1     -71.173 -58.201 -31.084  0.00  0.00    +0.000 A 
ATOM      6  C   UNL     1     -70.986 -56.717 -29.020  0.00  0.00    +0.000 A 
ATOM      7  C   UNL     1     -70.086 -56.028 -31.276  0.00  0.00    +0.000 A 
ATOM      8  C   UNL     1     -71.934 -58.763 -29.138  0.00  0.00    +0.000 A 
ATOM      9  C   UNL     1     -70.946 -58.442 -32.437  0.00  0.00    +0.000 A 
ATOM     10  C   UNL     1     -69.863 -56.278 -32.629  0.00  0.00    +0.000 A 
ATOM     11  C   UNL     1     -70.293 -57.476 -33.195  0.00  0.00    +0.000 A 
ENDROOT
BRANCH   4  12
ATOM     12  C   UNL     1     -72.061 -57.832 -26.873  0.00  0.00    +0.000 A 
ATOM     13  C   UNL     1     -73.121 -57.058 -26.391  0.00  0.00    +0.000 A 
ATOM     14  C   UNL     1     -71.354 -58.628 -25.965  0.00  0.00    +0.000 A 
ATOM     15  C   UNL     1     -73.470 -57.074 -25.042  0.00  0.00    +0.000 A 
ATOM     16  C   UNL     1     -71.691 -58.653 -24.612  0.00  0.00    +0.000 A 
ATOM     17  C   UNL     1     -72.749 -57.874 -24.162  0.00  0.00    +0.000 A 
BRANCH  17  18
ATOM     18  O   UNL     1     -73.065 -57.911 -22.836  0.00  0.00    +0.000 OA
ATOM     19  H   UNL     1     -72.264 -57.695 -22.326  0.00  0.00    +0.000 HD
ENDBRANCH  17  18
ENDBRANCH   4  12
BRANCH   7  20
ATOM     20  O   UNL     1     -69.636 -54.830 -30.791  0.00  0.00    +0.000 OA
ATOM     21  H   UNL     1     -68.703 -54.704 -31.079  0.00  0.00    +0.000 HD
ENDBRANCH   7  20
BRANCH  11  22
ATOM     22  O   UNL     1     -70.080 -57.731 -34.519  0.00  0.00    +0.000 OA
ATOM     23  H   UNL     1     -69.122 -57.838 -34.657  0.00  0.00    +0.000 HD
ENDBRANCH  11  22
TORSDOF 4
ENDMDL
MODEL 3
REMARK VINA RESULT:      -5.2     36.306     37.943
REMARK  Name = Genistein.pdbqt.pdb
REMARK  4 active torsions:
REMARK  status: ('A' for Active; 'I' for Inactive)
REMARK    1  A    between atoms: C_4  and  C_12
REMARK    2  A    between atoms: C_7  and  O_20
REMARK    3  A    between atoms: C_11  and  O_22
REMARK    4  A    between atoms: C_17  and  O_18
REMARK                            x       y       z     vdW  Elec       q    Type
REMARK                         _______ _______ _______ _____ _____    ______ ____
ROOT
ATOM      1  O   UNL     1     -62.297 -51.154 -22.080  0.00  0.00    +0.000 OA
ATOM      2  O   UNL     1     -62.066 -55.318 -21.744  0.00  0.00    +0.000 OA
ATOM      3  C   UNL     1     -61.608 -53.353 -23.002  0.00  0.00    +0.000 A 
ATOM      4  C   UNL     1     -62.780 -53.235 -20.751  0.00  0.00    +0.000 A 
ATOM      5  C   UNL     1     -61.709 -51.933 -23.075  0.00  0.00    +0.000 A 
ATOM      6  C   UNL     1     -62.153 -54.097 -21.805  0.00  0.00    +0.000 A 
ATOM      7  C   UNL     1     -60.999 -54.050 -24.050  0.00  0.00    +0.000 A 
ATOM      8  C   UNL     1     -62.695 -52.005 -21.150  0.00  0.00    +0.000 A 
ATOM      9  C   UNL     1     -61.207 -51.247 -24.178  0.00  0.00    +0.000 A 
ATOM     10  C   UNL     1     -60.499 -53.357 -25.151  0.00  0.00    +0.000 A 
ATOM     11  C   UNL     1     -60.606 -51.969 -25.205  0.00  0.00    +0.000 A 
ENDROOT
BRANCH   4  12
ATOM     12  C   UNL     1     -63.384 -53.682 -19.498  0.00  0.00    +0.000 A 
ATOM     13  C   UNL     1     -62.623 -54.330 -18.520  0.00  0.00    +0.000 A 
ATOM     14  C   UNL     1     -64.745 -53.470 -19.248  0.00  0.00    +0.000 A 
ATOM     15  C   UNL     1     -63.198 -54.756 -17.325  0.00  0.00    +0.000 A 
ATOM     16  C   UNL     1     -65.333 -53.892 -18.057  0.00  0.00    +0.000 A 
ATOM     17  C   UNL     1     -64.552 -54.532 -17.104  0.00  0.00    +0.000 A 
BRANCH  17  18
ATOM     18  O   UNL     1     -65.146 -54.937 -15.944  0.00  0.00    +0.000 OA
ATOM     19  H   UNL     1     -66.110 -54.930 -16.077  0.00  0.00    +0.000 HD
ENDBRANCH  17  18
ENDBRANCH   4  12
BRANCH   7  20
ATOM     20  O   UNL     1     -60.858 -55.411 -24.067  0.00  0.00    +0.000 OA
ATOM     21  H   UNL     1     -61.076 -55.740 -24.969  0.00  0.00    +0.000 HD
ENDBRANCH   7  20
BRANCH  11  22
ATOM     22  O   UNL     1     -60.120 -51.279 -26.278  0.00  0.00    +0.000 OA
ATOM     23  H   UNL     1     -59.189 -51.533 -26.405  0.00  0.00    +0.000 HD
ENDBRANCH  11  22
TORSDOF 4
ENDMDL
MODEL 4
REMARK VINA RESULT:      -5.2     19.774     22.079
REMARK  Name = Genistein.pdbqt.pdb
REMARK  4 active torsions:
REMARK  status: ('A' for Active; 'I' for Inactive)
REMARK    1  A    between atoms: C_4  and  C_12
REMARK    2  A    between atoms: C_7  and  O_20
REMARK    3  A    between atoms: C_11  and  O_22
REMARK    4  A    between atoms: C_17  and  O_18
REMARK                            x       y       z     vdW  Elec       q    Type
REMARK                         _______ _______ _______ _____ _____    ______ ____
ROOT
ATOM      1  O   UNL     1     -65.797 -60.893 -72.972  0.00  0.00    +0.000 OA
ATOM      2  O   UNL     1     -67.385 -59.403 -76.545  0.00  0.00    +0.000 OA
ATOM      3  C   UNL     1     -67.560 -59.635 -74.185  0.00  0.00    +0.000 A 
ATOM      4  C   UNL     1     -65.615 -60.646 -75.469  0.00  0.00    +0.000 A 
ATOM      5  C   UNL     1     -66.983 -60.162 -72.992  0.00  0.00    +0.000 A 
ATOM      6  C   UNL     1     -66.888 -59.855 -75.520  0.00  0.00    +0.000 A 
ATOM      7  C   UNL     1     -68.753 -58.912 -74.105  0.00  0.00    +0.000 A 
ATOM      8  C   UNL     1     -65.398 -60.958 -74.231  0.00  0.00    +0.000 A 
ATOM      9  C   UNL     1     -67.602 -59.958 -71.762  0.00  0.00    +0.000 A 
ATOM     10  C   UNL     1     -69.368 -58.713 -72.870  0.00  0.00    +0.000 A 
ATOM     11  C   UNL     1     -68.789 -59.234 -71.715  0.00  0.00    +0.000 A 
ENDROOT
BRANCH   4  12
ATOM     12  C   UNL     1     -64.763 -61.008 -76.600  0.00  0.00    +0.000 A 
ATOM     13  C   UNL     1     -63.650 -60.235 -76.943  0.00  0.00    +0.000 A 
ATOM     14  C   UNL     1     -65.043 -62.145 -77.367  0.00  0.00    +0.000 A 
ATOM     15  C   UNL     1     -62.837 -60.580 -78.020  0.00  0.00    +0.000 A 
ATOM     16  C   UNL     1     -64.238 -62.502 -78.448  0.00  0.00    +0.000 A 
ATOM     17  C   UNL     1     -63.139 -61.714 -78.765  0.00  0.00    +0.000 A 
BRANCH  17  18
ATOM     18  O   UNL     1     -62.363 -62.079 -79.826  0.00  0.00    +0.000 OA
ATOM     19  H   UNL     1     -61.497 -61.645 -79.733  0.00  0.00    +0.000 HD
ENDBRANCH  17  18
ENDBRANCH   4  12
BRANCH   7  20
ATOM     20  O   UNL     1     -69.379 -58.370 -75.195  0.00  0.00    +0.000 OA
ATOM     21  H   UNL     1     -68.904 -58.658 -76.008  0.00  0.00    +0.000 HD
ENDBRANCH   7  20
BRANCH  11  22
ATOM     22  O   UNL     1     -69.381 -59.045 -70.500  0.00  0.00    +0.000 OA
ATOM     23  H   UNL     1     -68.682 -59.008 -69.823  0.00  0.00    +0.000 HD
ENDBRANCH  11  22
TORSDOF 4
ENDMDL
MODEL 5
REMARK VINA RESULT:      -5.1     25.502     28.094
REMARK  Name = Genistein.pdbqt.pdb
REMARK  4 active torsions:
REMARK  status: ('A' for Active; 'I' for Inactive)
REMARK    1  A    between atoms: C_4  and  C_12
REMARK    2  A    between atoms: C_7  and  O_20
REMARK    3  A    between atoms: C_11  and  O_22
REMARK    4  A    between atoms: C_17  and  O_18
REMARK                            x       y       z     vdW  Elec       q    Type
REMARK                         _______ _______ _______ _____ _____    ______ ____
ROOT
ATOM      1  O   UNL     1     -70.077 -56.235 -34.709  0.00  0.00    +0.000 OA
ATOM      2  O   UNL     1     -68.499 -59.248 -32.272  0.00  0.00    +0.000 OA
ATOM      3  C   UNL     1     -68.609 -58.214 -34.411  0.00  0.00    +0.000 A 
ATOM      4  C   UNL     1     -69.958 -57.330 -32.447  0.00  0.00    +0.000 A 
ATOM      5  C   UNL     1     -69.172 -57.171 -35.204  0.00  0.00    +0.000 A 
ATOM      6  C   UNL     1     -68.982 -58.351 -32.953  0.00  0.00    +0.000 A 
ATOM      7  C   UNL     1     -67.707 -59.107 -34.996  0.00  0.00    +0.000 A 
ATOM      8  C   UNL     1     -70.252 -56.547 -33.436  0.00  0.00    +0.000 A 
ATOM      9  C   UNL     1     -68.828 -57.045 -36.548  0.00  0.00    +0.000 A 
ATOM     10  C   UNL     1     -67.368 -58.975 -36.342  0.00  0.00    +0.000 A 
ATOM     11  C   UNL     1     -67.928 -57.950 -37.101  0.00  0.00    +0.000 A 
ENDROOT
BRANCH   4  12
ATOM     12  C   UNL     1     -70.491 -57.225 -31.091  0.00  0.00    +0.000 A 
ATOM     13  C   UNL     1     -71.264 -58.249 -30.537  0.00  0.00    +0.000 A 
ATOM     14  C   UNL     1     -70.235 -56.090 -30.312  0.00  0.00    +0.000 A 
ATOM     15  C   UNL     1     -71.772 -58.150 -29.244  0.00  0.00    +0.000 A 
ATOM     16  C   UNL     1     -70.738 -55.978 -29.016  0.00  0.00    +0.000 A 
ATOM     17  C   UNL     1     -71.504 -57.011 -28.493  0.00  0.00    +0.000 A 
BRANCH  17  18
ATOM     18  O   UNL     1     -71.986 -56.883 -27.223  0.00  0.00    +0.000 OA
ATOM     19  H   UNL     1     -71.910 -55.948 -26.962  0.00  0.00    +0.000 HD
ENDBRANCH  17  18
ENDBRANCH   4  12
BRANCH   7  20
ATOM     20  O   UNL     1     -67.118 -60.137 -34.314  0.00  0.00    +0.000 OA
ATOM     21  H   UNL     1     -67.729 -60.909 -34.318  0.00  0.00    +0.000 HD
ENDBRANCH   7  20
BRANCH  11  22
ATOM     22  O   UNL     1     -67.603 -57.810 -38.420  0.00  0.00    +0.000 OA
ATOM     23  H   UNL     1     -66.677 -57.513 -38.474  0.00  0.00    +0.000 HD
ENDBRANCH  11  22
TORSDOF 4
ENDMDL
MODEL 6
REMARK VINA RESULT:      -5.0     41.473     43.366
REMARK  Name = Genistein.pdbqt.pdb
REMARK  4 active torsions:
REMARK  status: ('A' for Active; 'I' for Inactive)
REMARK    1  A    between atoms: C_4  and  C_12
REMARK    2  A    between atoms: C_7  and  O_20
REMARK    3  A    between atoms: C_11  and  O_22
REMARK    4  A    between atoms: C_17  and  O_18
REMARK                            x       y       z     vdW  Elec       q    Type
REMARK                         _______ _______ _______ _____ _____    ______ ____
ROOT
ATOM      1  O   UNL     1     -62.222 -55.875 -17.636  0.00  0.00    +0.000 OA
ATOM      2  O   UNL     1     -65.857 -54.998 -15.758  0.00  0.00    +0.000 OA
ATOM      3  C   UNL     1     -64.300 -54.525 -17.492  0.00  0.00    +0.000 A 
ATOM      4  C   UNL     1     -63.871 -56.373 -15.803  0.00  0.00    +0.000 A 
ATOM      5  C   UNL     1     -63.053 -54.858 -18.100  0.00  0.00    +0.000 A 
ATOM      6  C   UNL     1     -64.786 -55.285 -16.280  0.00  0.00    +0.000 A 
ATOM      7  C   UNL     1     -65.067 -53.487 -18.030  0.00  0.00    +0.000 A 
ATOM      8  C   UNL     1     -62.841 -56.390 -16.587  0.00  0.00    +0.000 A 
ATOM      9  C   UNL     1     -62.606 -54.157 -19.217  0.00  0.00    +0.000 A 
ATOM     10  C   UNL     1     -64.612 -52.790 -19.148  0.00  0.00    +0.000 A 
ATOM     11  C   UNL     1     -63.392 -53.130 -19.729  0.00  0.00    +0.000 A 
ENDROOT
BRANCH   4  12
ATOM     12  C   UNL     1     -64.086 -57.260 -14.661  0.00  0.00    +0.000 A 
ATOM     13  C   UNL     1     -63.762 -56.858 -13.363  0.00  0.00    +0.000 A 
ATOM     14  C   UNL     1     -64.627 -58.538 -14.846  0.00  0.00    +0.000 A 
ATOM     15  C   UNL     1     -63.967 -57.703 -12.274  0.00  0.00    +0.000 A 
ATOM     16  C   UNL     1     -64.837 -59.394 -13.765  0.00  0.00    +0.000 A 
ATOM     17  C   UNL     1     -64.505 -58.967 -12.486  0.00  0.00    +0.000 A 
BRANCH  17  18
ATOM     18  O   UNL     1     -64.719 -59.819 -11.442  0.00  0.00    +0.000 OA
ATOM     19  H   UNL     1     -63.856 -60.037 -11.046  0.00  0.00    +0.000 HD
ENDBRANCH  17  18
ENDBRANCH   4  12
BRANCH   7  20
ATOM     20  O   UNL     1     -66.274 -53.098 -17.515  0.00  0.00    +0.000 OA
ATOM     21  H   UNL     1     -66.939 -53.090 -18.241  0.00  0.00    +0.000 HD
ENDBRANCH   7  20
BRANCH  11  22
ATOM     22  O   UNL     1     -62.936 -52.455 -20.824  0.00  0.00    +0.000 OA
ATOM     23  H   UNL     1     -63.381 -52.816 -21.611  0.00  0.00    +0.000 HD
ENDBRANCH  11  22
TORSDOF 4
ENDMDL
MODEL 7
REMARK VINA RESULT:      -5.0     38.483     40.532
REMARK  Name = Genistein.pdbqt.pdb
REMARK  4 active torsions:
REMARK  status: ('A' for Active; 'I' for Inactive)
REMARK    1  A    between atoms: C_4  and  C_12
REMARK    2  A    between atoms: C_7  and  O_20
REMARK    3  A    between atoms: C_11  and  O_22
REMARK    4  A    between atoms: C_17  and  O_18
REMARK                            x       y       z     vdW  Elec       q    Type
REMARK                         _______ _______ _______ _____ _____    ______ ____
ROOT
ATOM      1  O   UNL     1     -61.750 -55.230 -17.675  0.00  0.00    +0.000 OA
ATOM      2  O   UNL     1     -64.859 -53.191 -19.593  0.00  0.00    +0.000 OA
ATOM      3  C   UNL     1     -64.016 -54.218 -17.621  0.00  0.00    +0.000 A 
ATOM      4  C   UNL     1     -62.645 -54.143 -19.759  0.00  0.00    +0.000 A 
ATOM      5  C   UNL     1     -62.931 -54.912 -17.008  0.00  0.00    +0.000 A 
ATOM      6  C   UNL     1     -63.927 -53.787 -19.067  0.00  0.00    +0.000 A 
ATOM      7  C   UNL     1     -65.162 -53.942 -16.871  0.00  0.00    +0.000 A 
ATOM      8  C   UNL     1     -61.897 -54.763 -18.903  0.00  0.00    +0.000 A 
ATOM      9  C   UNL     1     -63.014 -55.310 -15.676  0.00  0.00    +0.000 A 
ATOM     10  C   UNL     1     -65.237 -54.344 -15.539  0.00  0.00    +0.000 A 
ATOM     11  C   UNL     1     -64.168 -55.020 -14.956  0.00  0.00    +0.000 A 
ENDROOT
BRANCH   4  12
ATOM     12  C   UNL     1     -62.289 -53.852 -21.147  0.00  0.00    +0.000 A 
ATOM     13  C   UNL     1     -62.167 -52.536 -21.601  0.00  0.00    +0.000 A 
ATOM     14  C   UNL     1     -62.060 -54.893 -22.055  0.00  0.00    +0.000 A 
ATOM     15  C   UNL     1     -61.827 -52.259 -22.923  0.00  0.00    +0.000 A 
ATOM     16  C   UNL     1     -61.720 -54.629 -23.381  0.00  0.00    +0.000 A 
ATOM     17  C   UNL     1     -61.606 -53.311 -23.804  0.00  0.00    +0.000 A 
BRANCH  17  18
ATOM     18  O   UNL     1     -61.271 -53.073 -25.105  0.00  0.00    +0.000 OA
ATOM     19  H   UNL     1     -60.317 -52.884 -25.144  0.00  0.00    +0.000 HD
ENDBRANCH  17  18
ENDBRANCH   4  12
BRANCH   7  20
ATOM     20  O   UNL     1     -66.251 -53.283 -17.374  0.00  0.00    +0.000 OA
ATOM     21  H   UNL     1     -66.897 -53.948 -17.705  0.00  0.00    +0.000 HD
ENDBRANCH   7  20
BRANCH  11  22
ATOM     22  O   UNL     1     -64.230 -55.418 -13.651  0.00  0.00    +0.000 OA
ATOM     23  H   UNL     1     -65.141 -55.704 -13.464  0.00  0.00    +0.000 HD
ENDBRANCH  11  22
TORSDOF 4
ENDMDL
MODEL 8
REMARK VINA RESULT:      -5.0     29.373     32.208
REMARK  Name = Genistein.pdbqt.pdb
REMARK  4 active torsions:
REMARK  status: ('A' for Active; 'I' for Inactive)
REMARK    1  A    between atoms: C_4  and  C_12
REMARK    2  A    between atoms: C_7  and  O_20
REMARK    3  A    between atoms: C_11  and  O_22
REMARK    4  A    between atoms: C_17  and  O_18
REMARK                            x       y       z     vdW  Elec       q    Type
REMARK                         _______ _______ _______ _____ _____    ______ ____
ROOT
ATOM      1  O   UNL     1     -70.427 -55.664 -29.597  0.00  0.00    +0.000 OA
ATOM      2  O   UNL     1     -72.205 -59.432 -29.209  0.00  0.00    +0.000 OA
ATOM      3  C   UNL     1     -71.149 -57.817 -30.600  0.00  0.00    +0.000 A 
ATOM      4  C   UNL     1     -71.544 -57.375 -28.129  0.00  0.00    +0.000 A 
ATOM      5  C   UNL     1     -70.551 -56.526 -30.686  0.00  0.00    +0.000 A 
ATOM      6  C   UNL     1     -71.691 -58.322 -29.283  0.00  0.00    +0.000 A 
ATOM      7  C   UNL     1     -71.229 -58.612 -31.747  0.00  0.00    +0.000 A 
ATOM      8  C   UNL     1     -70.961 -56.307 -28.573  0.00  0.00    +0.000 A 
ATOM      9  C   UNL     1     -70.053 -56.061 -31.900  0.00  0.00    +0.000 A 
ATOM     10  C   UNL     1     -70.728 -58.139 -32.959  0.00  0.00    +0.000 A 
ATOM     11  C   UNL     1     -70.146 -56.875 -33.024  0.00  0.00    +0.000 A 
ENDROOT
BRANCH   4  12
ATOM     12  C   UNL     1     -71.976 -57.599 -26.751  0.00  0.00    +0.000 A 
ATOM     13  C   UNL     1     -71.264 -58.449 -25.901  0.00  0.00    +0.000 A 
ATOM     14  C   UNL     1     -73.117 -56.962 -26.251  0.00  0.00    +0.000 A 
ATOM     15  C   UNL     1     -71.675 -58.663 -24.586  0.00  0.00    +0.000 A 
ATOM     16  C   UNL     1     -73.539 -57.167 -24.938  0.00  0.00    +0.000 A 
ATOM     17  C   UNL     1     -72.812 -58.017 -24.116  0.00  0.00    +0.000 A 
BRANCH  17  18
ATOM     18  O   UNL     1     -73.241 -58.205 -22.834  0.00  0.00    +0.000 OA
ATOM     19  H   UNL     1     -72.774 -58.976 -22.467  0.00  0.00    +0.000 HD
ENDBRANCH  17  18
ENDBRANCH   4  12
BRANCH   7  20
ATOM     20  O   UNL     1     -71.784 -59.862 -31.760  0.00  0.00    +0.000 OA
ATOM     21  H   UNL     1     -71.999 -60.103 -32.690  0.00  0.00    +0.000 HD
ENDBRANCH   7  20
BRANCH  11  22
ATOM     22  O   UNL     1     -69.651 -56.402 -34.205  0.00  0.00    +0.000 OA
ATOM     23  H   UNL     1     -69.990 -55.498 -34.336  0.00  0.00    +0.000 HD
ENDBRANCH  11  22
TORSDOF 4
ENDMDL
MODEL 9
REMARK VINA RESULT:      -5.0     31.196     34.466
REMARK  Name = Genistein.pdbqt.pdb
REMARK  4 active torsions:
REMARK  status: ('A' for Active; 'I' for Inactive)
REMARK    1  A    between atoms: C_4  and  C_12
REMARK    2  A    between atoms: C_7  and  O_20
REMARK    3  A    between atoms: C_11  and  O_22
REMARK    4  A    between atoms: C_17  and  O_18
REMARK                            x       y       z     vdW  Elec       q    Type
REMARK                         _______ _______ _______ _____ _____    ______ ____
ROOT
ATOM      1  O   UNL     1     -74.518 -56.164 -26.603  0.00  0.00    +0.000 OA
ATOM      2  O   UNL     1     -70.909 -58.232 -26.153  0.00  0.00    +0.000 OA
ATOM      3  C   UNL     1     -72.999 -57.569 -25.232  0.00  0.00    +0.000 A 
ATOM      4  C   UNL     1     -72.307 -56.868 -27.574  0.00  0.00    +0.000 A 
ATOM      5  C   UNL     1     -74.215 -56.851 -25.429  0.00  0.00    +0.000 A 
ATOM      6  C   UNL     1     -71.954 -57.615 -26.323  0.00  0.00    +0.000 A 
ATOM      7  C   UNL     1     -72.783 -58.229 -24.019  0.00  0.00    +0.000 A 
ATOM      8  C   UNL     1     -73.477 -56.341 -27.398  0.00  0.00    +0.000 A 
ATOM      9  C   UNL     1     -75.177 -56.808 -24.424  0.00  0.00    +0.000 A 
ATOM     10  C   UNL     1     -73.751 -58.182 -23.018  0.00  0.00    +0.000 A 
ATOM     11  C   UNL     1     -74.934 -57.476 -23.228  0.00  0.00    +0.000 A 
ENDROOT
BRANCH   4  12
ATOM     12  C   UNL     1     -71.491 -56.743 -28.780  0.00  0.00    +0.000 A 
ATOM     13  C   UNL     1     -71.442 -57.768 -29.728  0.00  0.00    +0.000 A 
ATOM     14  C   UNL     1     -70.737 -55.586 -29.013  0.00  0.00    +0.000 A 
ATOM     15  C   UNL     1     -70.664 -57.650 -30.878  0.00  0.00    +0.000 A 
ATOM     16  C   UNL     1     -69.954 -55.455 -30.159  0.00  0.00    +0.000 A 
ATOM     17  C   UNL     1     -69.925 -56.490 -31.084  0.00  0.00    +0.000 A 
BRANCH  17  18
ATOM     18  O   UNL     1     -69.154 -56.343 -32.199  0.00  0.00    +0.000 OA
ATOM     19  H   UNL     1     -68.322 -56.829 -32.060  0.00  0.00    +0.000 HD
ENDBRANCH  17  18
ENDBRANCH   4  12
BRANCH   7  20
ATOM     20  O   UNL     1     -71.648 -58.942 -23.741  0.00  0.00    +0.000 OA
ATOM     21  H   UNL     1     -71.626 -59.738 -24.320  0.00  0.00    +0.000 HD
ENDBRANCH   7  20
BRANCH  11  22
ATOM     22  O   UNL     1     -75.889 -57.423 -22.254  0.00  0.00    +0.000 OA
ATOM     23  H   UNL     1     -75.513 -56.959 -21.485  0.00  0.00    +0.000 HD
ENDBRANCH  11  22
TORSDOF 4
ENDMDL
