MODEL 1
REMARK VINA RESULT:      -2.2      0.000      0.000
REMARK  Name = HydrogenPeroxide.pdbqt.pdb
REMARK  1 active torsions:
REMARK  status: ('A' for Active; 'I' for Inactive)
REMARK    1  A    between atoms: O_1  and  O_3
REMARK                            x       y       z     vdW  Elec       q    Type
REMARK                         _______ _______ _______ _____ _____    ______ ____
ROOT
ATOM      1  O   UNL     1     -63.597 -51.925 -74.100  0.00  0.00    +0.000 OA
ATOM      2  H   UNL     1     -64.486 -51.949 -74.501  0.00  0.00    +0.000 HD
ENDROOT
BRANCH   1   3
ATOM      3  O   UNL     1     -62.857 -51.713 -75.333  0.00  0.00    +0.000 OA
ATOM      4  H   UNL     1     -63.564 -51.999 -75.942  0.00  0.00    +0.000 HD
ENDBRANCH   1   3
TORSDOF 1
ENDMDL
MODEL 2
REMARK VINA RESULT:      -2.2      3.935      3.987
REMARK  Name = HydrogenPeroxide.pdbqt.pdb
REMARK  1 active torsions:
REMARK  status: ('A' for Active; 'I' for Inactive)
REMARK    1  A    between atoms: O_1  and  O_3
REMARK                            x       y       z     vdW  Elec       q    Type
REMARK                         _______ _______ _______ _____ _____    ______ ____
ROOT
ATOM      1  O   UNL     1     -59.371 -52.099 -74.625  0.00  0.00    +0.000 OA
ATOM      2  H   UNL     1     -60.247 -52.463 -74.857  0.00  0.00    +0.000 HD
ENDROOT
BRANCH   1   3
ATOM      3  O   UNL     1     -59.223 -51.247 -75.793  0.00  0.00    +0.000 OA
ATOM      4  H   UNL     1     -58.464 -50.730 -75.463  0.00  0.00    +0.000 HD
ENDBRANCH   1   3
TORSDOF 1
ENDMDL
MODEL 3
REMARK VINA RESULT:      -2.1     34.412     34.558
REMARK  Name = HydrogenPeroxide.pdbqt.pdb
REMARK  1 active torsions:
REMARK  status: ('A' for Active; 'I' for Inactive)
REMARK    1  A    between atoms: O_1  and  O_3
REMARK                            x       y       z     vdW  Elec       q    Type
REMARK                         _______ _______ _______ _____ _____    ______ ____
ROOT
ATOM      1  O   UNL     1     -57.461 -51.487 -40.487  0.00  0.00    +0.000 OA
ATOM      2  H   UNL     1     -56.795 -52.097 -40.857  0.00  0.00    +0.000 HD
ENDROOT
BRANCH   1   3
ATOM      3  O   UNL     1     -56.841 -50.256 -40.946  0.00  0.00    +0.000 OA
ATOM      4  H   UNL     1     -57.500 -50.043 -41.633  0.00  0.00    +0.000 HD
ENDBRANCH   1   3
TORSDOF 1
ENDMDL
MODEL 4
REMARK VINA RESULT:      -2.0     10.037     10.592
REMARK  Name = HydrogenPeroxide.pdbqt.pdb
REMARK  1 active torsions:
REMARK  status: ('A' for Active; 'I' for Inactive)
REMARK    1  A    between atoms: O_1  and  O_3
REMARK                            x       y       z     vdW  Elec       q    Type
REMARK                         _______ _______ _______ _____ _____    ______ ____
ROOT
ATOM      1  O   UNL     1     -69.763 -48.863 -67.733  0.00  0.00    +0.000 OA
ATOM      2  H   UNL     1     -70.635 -48.696 -68.139  0.00  0.00    +0.000 HD
ENDROOT
BRANCH   1   3
ATOM      3  O   UNL     1     -70.252 -49.553 -66.551  0.00  0.00    +0.000 OA
ATOM      4  H   UNL     1     -69.384 -49.861 -66.229  0.00  0.00    +0.000 HD
ENDBRANCH   1   3
TORSDOF 1
ENDMDL
MODEL 5
REMARK VINA RESULT:      -2.0     56.884     57.411
REMARK  Name = HydrogenPeroxide.pdbqt.pdb
REMARK  1 active torsions:
REMARK  status: ('A' for Active; 'I' for Inactive)
REMARK    1  A    between atoms: O_1  and  O_3
REMARK                            x       y       z     vdW  Elec       q    Type
REMARK                         _______ _______ _______ _____ _____    ______ ____
ROOT
ATOM      1  O   UNL     1     -71.372 -62.474 -18.344  0.00  0.00    +0.000 OA
ATOM      2  H   UNL     1     -71.891 -62.927 -19.036  0.00  0.00    +0.000 HD
ENDROOT
BRANCH   1   3
ATOM      3  O   UNL     1     -70.296 -62.018 -19.208  0.00  0.00    +0.000 OA
ATOM      4  H   UNL     1     -69.561 -62.246 -18.606  0.00  0.00    +0.000 HD
ENDBRANCH   1   3
TORSDOF 1
ENDMDL
MODEL 6
REMARK VINA RESULT:      -1.9     67.168     67.410
REMARK  Name = HydrogenPeroxide.pdbqt.pdb
REMARK  1 active torsions:
REMARK  status: ('A' for Active; 'I' for Inactive)
REMARK    1  A    between atoms: O_1  and  O_3
REMARK                            x       y       z     vdW  Elec       q    Type
REMARK                         _______ _______ _______ _____ _____    ______ ____
ROOT
ATOM      1  O   UNL     1     -74.378 -60.214  -9.019  0.00  0.00    +0.000 OA
ATOM      2  H   UNL     1     -73.860 -60.452  -8.227  0.00  0.00    +0.000 HD
ENDROOT
BRANCH   1   3
ATOM      3  O   UNL     1     -74.954 -58.990  -8.486  0.00  0.00    +0.000 OA
ATOM      4  H   UNL     1     -75.370 -58.687  -9.315  0.00  0.00    +0.000 HD
ENDBRANCH   1   3
TORSDOF 1
ENDMDL
MODEL 7
REMARK VINA RESULT:      -1.9     31.271     31.401
REMARK  Name = HydrogenPeroxide.pdbqt.pdb
REMARK  1 active torsions:
REMARK  status: ('A' for Active; 'I' for Inactive)
REMARK    1  A    between atoms: O_1  and  O_3
REMARK                            x       y       z     vdW  Elec       q    Type
REMARK                         _______ _______ _______ _____ _____    ______ ____
ROOT
ATOM      1  O   UNL     1     -47.949 -62.407 -99.853  0.00  0.00    +0.000 OA
ATOM      2  H   UNL     1     -48.416 -63.243-100.039  0.00  0.00    +0.000 HD
ENDROOT
BRANCH   1   3
ATOM      3  O   UNL     1     -46.800 -62.997 -99.186  0.00  0.00    +0.000 OA
ATOM      4  H   UNL     1     -46.717 -62.325 -98.483  0.00  0.00    +0.000 HD
ENDBRANCH   1   3
TORSDOF 1
ENDMDL
MODEL 8
REMARK VINA RESULT:      -1.9     18.744     18.830
REMARK  Name = HydrogenPeroxide.pdbqt.pdb
REMARK  1 active torsions:
REMARK  status: ('A' for Active; 'I' for Inactive)
REMARK    1  A    between atoms: O_1  and  O_3
REMARK                            x       y       z     vdW  Elec       q    Type
REMARK                         _______ _______ _______ _____ _____    ______ ____
ROOT
ATOM      1  O   UNL     1     -54.003 -60.920 -88.240  0.00  0.00    +0.000 OA
ATOM      2  H   UNL     1     -53.710 -61.174 -89.136  0.00  0.00    +0.000 HD
ENDROOT
BRANCH   1   3
ATOM      3  O   UNL     1     -52.682 -60.644 -87.699  0.00  0.00    +0.000 OA
ATOM      4  H   UNL     1     -52.702 -59.677 -87.833  0.00  0.00    +0.000 HD
ENDBRANCH   1   3
TORSDOF 1
ENDMDL
MODEL 9
REMARK VINA RESULT:      -1.9      1.904      2.603
REMARK  Name = HydrogenPeroxide.pdbqt.pdb
REMARK  1 active torsions:
REMARK  status: ('A' for Active; 'I' for Inactive)
REMARK    1  A    between atoms: O_1  and  O_3
REMARK                            x       y       z     vdW  Elec       q    Type
REMARK                         _______ _______ _______ _____ _____    ______ ____
ROOT
ATOM      1  O   UNL     1     -62.460 -52.441 -77.399  0.00  0.00    +0.000 OA
ATOM      2  H   UNL     1     -63.407 -52.608 -77.231  0.00  0.00    +0.000 HD
ENDROOT
BRANCH   1   3
ATOM      3  O   UNL     1     -62.167 -51.811 -76.122  0.00  0.00    +0.000 OA
ATOM      4  H   UNL     1     -63.093 -51.679 -75.843  0.00  0.00    +0.000 HD
ENDBRANCH   1   3
TORSDOF 1
ENDMDL
