MODEL 1
REMARK VINA RESULT:      -5.2      0.000      0.000
REMARK  Name = Hyoscyamine.pdbqt.pdb
REMARK  6 active torsions:
REMARK  status: ('A' for Active; 'I' for Inactive)
REMARK    1  A    between atoms: C_2  and  O_3
REMARK    2  A    between atoms: C_2  and  C_13
REMARK    3  A    between atoms: O_3  and  C_4
REMARK    4  A    between atoms: C_13  and  C_14
REMARK    5  A    between atoms: C_13  and  C_20
REMARK    6  A    between atoms: C_20  and  O_21
REMARK                            x       y       z     vdW  Elec       q    Type
REMARK                         _______ _______ _______ _____ _____    ______ ____
ROOT
ATOM      1  O   UNL     1     -67.144 -58.254 -32.210  0.00  0.00    +0.000 OA
ATOM      2  C   UNL     1     -68.054 -58.496 -32.993  0.00  0.00    +0.000 C 
ENDROOT
BRANCH   2   3
ATOM      3  O   UNL     1     -69.374 -58.190 -32.833  0.00  0.00    +0.000 OA
BRANCH   3   4
ATOM      4  C   UNL     1     -69.624 -57.442 -31.682  0.00  0.00    +0.000 C 
ATOM      5  C   UNL     1     -70.704 -57.800 -30.780  0.00  0.00    +0.000 C 
ATOM      6  C   UNL     1     -71.626 -56.880 -30.101  0.00  0.00    +0.000 C 
ATOM      7  N   UNL     1     -71.952 -55.825 -31.167  0.00  0.00    +0.000 NA
ATOM      8  C   UNL     1     -70.994 -56.124 -29.034  0.00  0.00    +0.000 C 
ATOM      9  C   UNL     1     -70.605 -55.088 -31.118  0.00  0.00    +0.000 C 
ATOM     10  C   UNL     1     -73.057 -54.953 -30.740  0.00  0.00    +0.000 C 
ATOM     11  C   UNL     1     -70.314 -54.926 -29.700  0.00  0.00    +0.000 C 
ATOM     12  C   UNL     1     -69.672 -55.998 -31.799  0.00  0.00    +0.000 C 
ENDBRANCH   3   4
ENDBRANCH   2   3
BRANCH   2  13
ATOM     13  C   UNL     1     -67.845 -59.228 -34.278  0.00  0.00    +0.000 C 
BRANCH  13  14
ATOM     14  C   UNL     1     -67.839 -58.576 -35.601  0.00  0.00    +0.000 A 
ATOM     15  C   UNL     1     -67.889 -57.182 -35.702  0.00  0.00    +0.000 A 
ATOM     16  C   UNL     1     -67.921 -56.554 -36.946  0.00  0.00    +0.000 A 
ATOM     17  C   UNL     1     -67.914 -57.316 -38.109  0.00  0.00    +0.000 A 
ATOM     18  C   UNL     1     -67.876 -58.704 -38.027  0.00  0.00    +0.000 A 
ATOM     19  C   UNL     1     -67.844 -59.326 -36.780  0.00  0.00    +0.000 A 
ENDBRANCH  13  14
BRANCH  13  20
ATOM     20  C   UNL     1     -67.570 -60.629 -34.186  0.00  0.00    +0.000 C 
BRANCH  20  21
ATOM     21  O   UNL     1     -67.316 -61.930 -34.100  0.00  0.00    +0.000 OA
ATOM     22  H   UNL     1     -67.002 -62.158 -33.207  0.00  0.00    +0.000 HD
ENDBRANCH  20  21
ENDBRANCH  13  20
ENDBRANCH   2  13
TORSDOF 6
ENDMDL
MODEL 2
REMARK VINA RESULT:      -5.1     48.963     52.648
REMARK  Name = Hyoscyamine.pdbqt.pdb
REMARK  6 active torsions:
REMARK  status: ('A' for Active; 'I' for Inactive)
REMARK    1  A    between atoms: C_2  and  O_3
REMARK    2  A    between atoms: C_2  and  C_13
REMARK    3  A    between atoms: O_3  and  C_4
REMARK    4  A    between atoms: C_13  and  C_14
REMARK    5  A    between atoms: C_13  and  C_20
REMARK    6  A    between atoms: C_20  and  O_21
REMARK                            x       y       z     vdW  Elec       q    Type
REMARK                         _______ _______ _______ _____ _____    ______ ____
ROOT
ATOM      1  O   UNL     1     -47.141 -61.364 -81.890  0.00  0.00    +0.000 OA
ATOM      2  C   UNL     1     -48.285 -61.739 -81.664  0.00  0.00    +0.000 C 
ENDROOT
BRANCH   2   3
ATOM      3  O   UNL     1     -48.778 -63.002 -81.817  0.00  0.00    +0.000 OA
BRANCH   3   4
ATOM      4  C   UNL     1     -47.778 -63.972 -81.881  0.00  0.00    +0.000 C 
ATOM      5  C   UNL     1     -47.690 -64.879 -83.012  0.00  0.00    +0.000 C 
ATOM      6  C   UNL     1     -47.381 -66.314 -82.967  0.00  0.00    +0.000 C 
ATOM      7  N   UNL     1     -48.154 -66.826 -81.744  0.00  0.00    +0.000 NA
ATOM      8  C   UNL     1     -45.990 -66.588 -82.648  0.00  0.00    +0.000 C 
ATOM      9  C   UNL     1     -47.230 -66.223 -80.674  0.00  0.00    +0.000 C 
ATOM     10  C   UNL     1     -48.157 -68.295 -81.686  0.00  0.00    +0.000 C 
ATOM     11  C   UNL     1     -45.880 -66.533 -81.123  0.00  0.00    +0.000 C 
ATOM     12  C   UNL     1     -47.533 -64.784 -80.705  0.00  0.00    +0.000 C 
ENDBRANCH   3   4
ENDBRANCH   2   3
BRANCH   2  13
ATOM     13  C   UNL     1     -49.364 -60.815 -81.204  0.00  0.00    +0.000 C 
BRANCH  13  14
ATOM     14  C   UNL     1     -49.832 -60.731 -79.807  0.00  0.00    +0.000 A 
ATOM     15  C   UNL     1     -49.092 -61.325 -78.778  0.00  0.00    +0.000 A 
ATOM     16  C   UNL     1     -49.541 -61.285 -77.459  0.00  0.00    +0.000 A 
ATOM     17  C   UNL     1     -50.744 -60.658 -77.153  0.00  0.00    +0.000 A 
ATOM     18  C   UNL     1     -51.497 -60.072 -78.165  0.00  0.00    +0.000 A 
ATOM     19  C   UNL     1     -51.043 -60.115 -79.483  0.00  0.00    +0.000 A 
ENDBRANCH  13  14
BRANCH  13  20
ATOM     20  C   UNL     1     -49.913 -59.924 -82.180  0.00  0.00    +0.000 C 
BRANCH  20  21
ATOM     21  O   UNL     1     -50.422 -59.097 -83.087  0.00  0.00    +0.000 OA
ATOM     22  H   UNL     1     -50.817 -58.319 -82.655  0.00  0.00    +0.000 HD
ENDBRANCH  20  21
ENDBRANCH  13  20
ENDBRANCH   2  13
TORSDOF 6
ENDMDL
MODEL 3
REMARK VINA RESULT:      -5.0     33.468     35.731
REMARK  Name = Hyoscyamine.pdbqt.pdb
REMARK  6 active torsions:
REMARK  status: ('A' for Active; 'I' for Inactive)
REMARK    1  A    between atoms: C_2  and  O_3
REMARK    2  A    between atoms: C_2  and  C_13
REMARK    3  A    between atoms: O_3  and  C_4
REMARK    4  A    between atoms: C_13  and  C_14
REMARK    5  A    between atoms: C_13  and  C_20
REMARK    6  A    between atoms: C_20  and  O_21
REMARK                            x       y       z     vdW  Elec       q    Type
REMARK                         _______ _______ _______ _____ _____    ______ ____
ROOT
ATOM      1  O   UNL     1     -54.978 -60.195 -64.692  0.00  0.00    +0.000 OA
ATOM      2  C   UNL     1     -55.634 -59.239 -65.088  0.00  0.00    +0.000 C 
ENDROOT
BRANCH   2   3
ATOM      3  O   UNL     1     -55.855 -58.067 -64.424  0.00  0.00    +0.000 OA
BRANCH   3   4
ATOM      4  C   UNL     1     -54.676 -57.425 -64.046  0.00  0.00    +0.000 C 
ATOM      5  C   UNL     1     -54.654 -56.512 -62.917  0.00  0.00    +0.000 C 
ATOM      6  C   UNL     1     -53.936 -55.233 -62.833  0.00  0.00    +0.000 C 
ATOM      7  N   UNL     1     -54.138 -54.600 -64.216  0.00  0.00    +0.000 NA
ATOM      8  C   UNL     1     -52.496 -55.394 -62.723  0.00  0.00    +0.000 C 
ATOM      9  C   UNL     1     -53.166 -55.510 -64.983  0.00  0.00    +0.000 C 
ATOM     10  C   UNL     1     -53.691 -53.199 -64.237  0.00  0.00    +0.000 C 
ATOM     11  C   UNL     1     -51.973 -55.575 -64.149  0.00  0.00    +0.000 C 
ATOM     12  C   UNL     1     -53.876 -56.795 -65.077  0.00  0.00    +0.000 C 
ENDBRANCH   3   4
ENDBRANCH   2   3
BRANCH   2  13
ATOM     13  C   UNL     1     -56.350 -59.235 -66.398  0.00  0.00    +0.000 C 
BRANCH  13  14
ATOM     14  C   UNL     1     -55.727 -58.829 -67.672  0.00  0.00    +0.000 A 
ATOM     15  C   UNL     1     -54.713 -59.607 -68.241  0.00  0.00    +0.000 A 
ATOM     16  C   UNL     1     -54.090 -59.216 -69.425  0.00  0.00    +0.000 A 
ATOM     17  C   UNL     1     -54.469 -58.034 -70.052  0.00  0.00    +0.000 A 
ATOM     18  C   UNL     1     -55.468 -57.244 -69.495  0.00  0.00    +0.000 A 
ATOM     19  C   UNL     1     -56.088 -57.640 -68.310  0.00  0.00    +0.000 A 
ENDBRANCH  13  14
BRANCH  13  20
ATOM     20  C   UNL     1     -57.696 -59.719 -66.400  0.00  0.00    +0.000 C 
BRANCH  20  21
ATOM     21  O   UNL     1     -58.947 -60.169 -66.402  0.00  0.00    +0.000 OA
ATOM     22  H   UNL     1     -59.545 -59.515 -66.000  0.00  0.00    +0.000 HD
ENDBRANCH  20  21
ENDBRANCH  13  20
ENDBRANCH   2  13
TORSDOF 6
ENDMDL
MODEL 4
REMARK VINA RESULT:      -4.9      2.450      7.058
REMARK  Name = Hyoscyamine.pdbqt.pdb
REMARK  6 active torsions:
REMARK  status: ('A' for Active; 'I' for Inactive)
REMARK    1  A    between atoms: C_2  and  O_3
REMARK    2  A    between atoms: C_2  and  C_13
REMARK    3  A    between atoms: O_3  and  C_4
REMARK    4  A    between atoms: C_13  and  C_14
REMARK    5  A    between atoms: C_13  and  C_20
REMARK    6  A    between atoms: C_20  and  O_21
REMARK                            x       y       z     vdW  Elec       q    Type
REMARK                         _______ _______ _______ _____ _____    ______ ____
ROOT
ATOM      1  O   UNL     1     -70.682 -55.621 -33.729  0.00  0.00    +0.000 OA
ATOM      2  C   UNL     1     -69.958 -56.599 -33.584  0.00  0.00    +0.000 C 
ENDROOT
BRANCH   2   3
ATOM      3  O   UNL     1     -69.548 -57.465 -34.556  0.00  0.00    +0.000 OA
BRANCH   3   4
ATOM      4  C   UNL     1     -69.226 -56.825 -35.753  0.00  0.00    +0.000 C 
ATOM      5  C   UNL     1     -70.219 -56.663 -36.801  0.00  0.00    +0.000 C 
ATOM      6  C   UNL     1     -70.007 -56.818 -38.246  0.00  0.00    +0.000 C 
ATOM      7  N   UNL     1     -69.093 -58.047 -38.360  0.00  0.00    +0.000 NA
ATOM      8  C   UNL     1     -69.225 -55.740 -38.827  0.00  0.00    +0.000 C 
ATOM      9  C   UNL     1     -67.803 -57.365 -37.876  0.00  0.00    +0.000 C 
ATOM     10  C   UNL     1     -68.972 -58.499 -39.754  0.00  0.00    +0.000 C 
ATOM     11  C   UNL     1     -67.757 -56.097 -38.590  0.00  0.00    +0.000 C 
ATOM     12  C   UNL     1     -68.001 -57.207 -36.427  0.00  0.00    +0.000 C 
ENDBRANCH   3   4
ENDBRANCH   2   3
BRANCH   2  13
ATOM     13  C   UNL     1     -69.430 -57.026 -32.254  0.00  0.00    +0.000 C 
BRANCH  13  14
ATOM     14  C   UNL     1     -70.076 -56.693 -30.970  0.00  0.00    +0.000 A 
ATOM     15  C   UNL     1     -70.952 -57.601 -30.365  0.00  0.00    +0.000 A 
ATOM     16  C   UNL     1     -71.598 -57.286 -29.170  0.00  0.00    +0.000 A 
ATOM     17  C   UNL     1     -71.381 -56.050 -28.569  0.00  0.00    +0.000 A 
ATOM     18  C   UNL     1     -70.522 -55.132 -29.163  0.00  0.00    +0.000 A 
ATOM     19  C   UNL     1     -69.879 -55.453 -30.358  0.00  0.00    +0.000 A 
ENDBRANCH  13  14
BRANCH  13  20
ATOM     20  C   UNL     1     -68.266 -57.858 -32.258  0.00  0.00    +0.000 C 
BRANCH  20  21
ATOM     21  O   UNL     1     -67.185 -58.631 -32.260  0.00  0.00    +0.000 OA
ATOM     22  H   UNL     1     -67.437 -59.569 -32.195  0.00  0.00    +0.000 HD
ENDBRANCH  20  21
ENDBRANCH  13  20
ENDBRANCH   2  13
TORSDOF 6
ENDMDL
MODEL 5
REMARK VINA RESULT:      -4.9      3.225      5.148
REMARK  Name = Hyoscyamine.pdbqt.pdb
REMARK  6 active torsions:
REMARK  status: ('A' for Active; 'I' for Inactive)
REMARK    1  A    between atoms: C_2  and  O_3
REMARK    2  A    between atoms: C_2  and  C_13
REMARK    3  A    between atoms: O_3  and  C_4
REMARK    4  A    between atoms: C_13  and  C_14
REMARK    5  A    between atoms: C_13  and  C_20
REMARK    6  A    between atoms: C_20  and  O_21
REMARK                            x       y       z     vdW  Elec       q    Type
REMARK                         _______ _______ _______ _____ _____    ______ ____
ROOT
ATOM      1  O   UNL     1     -72.625 -57.265 -31.535  0.00  0.00    +0.000 OA
ATOM      2  C   UNL     1     -71.570 -57.479 -30.950  0.00  0.00    +0.000 C 
ENDROOT
BRANCH   2   3
ATOM      3  O   UNL     1     -71.376 -58.326 -29.897  0.00  0.00    +0.000 OA
BRANCH   3   4
ATOM      4  C   UNL     1     -72.161 -58.005 -28.789  0.00  0.00    +0.000 C 
ATOM      5  C   UNL     1     -71.568 -57.426 -27.597  0.00  0.00    +0.000 C 
ATOM      6  C   UNL     1     -71.898 -57.750 -26.203  0.00  0.00    +0.000 C 
ATOM      7  N   UNL     1     -72.069 -59.275 -26.204  0.00  0.00    +0.000 NA
ATOM      8  C   UNL     1     -73.198 -57.247 -25.793  0.00  0.00    +0.000 C 
ATOM      9  C   UNL     1     -73.431 -59.310 -26.915  0.00  0.00    +0.000 C 
ATOM     10  C   UNL     1     -72.163 -59.807 -24.836  0.00  0.00    +0.000 C 
ATOM     11  C   UNL     1     -74.225 -58.280 -26.259  0.00  0.00    +0.000 C 
ATOM     12  C   UNL     1     -73.114 -58.990 -28.316  0.00  0.00    +0.000 C 
ENDBRANCH   3   4
ENDBRANCH   2   3
BRANCH   2  13
ATOM     13  C   UNL     1     -70.295 -56.784 -31.297  0.00  0.00    +0.000 C 
BRANCH  13  14
ATOM     14  C   UNL     1     -69.514 -57.064 -32.516  0.00  0.00    +0.000 A 
ATOM     15  C   UNL     1     -68.260 -57.678 -32.425  0.00  0.00    +0.000 A 
ATOM     16  C   UNL     1     -67.494 -57.916 -33.566  0.00  0.00    +0.000 A 
ATOM     17  C   UNL     1     -67.972 -57.533 -34.815  0.00  0.00    +0.000 A 
ATOM     18  C   UNL     1     -69.212 -56.913 -34.922  0.00  0.00    +0.000 A 
ATOM     19  C   UNL     1     -69.973 -56.677 -33.777  0.00  0.00    +0.000 A 
ENDBRANCH  13  14
BRANCH  13  20
ATOM     20  C   UNL     1     -69.864 -55.745 -30.412  0.00  0.00    +0.000 C 
BRANCH  20  21
ATOM     21  O   UNL     1     -69.464 -54.780 -29.591  0.00  0.00    +0.000 OA
ATOM     22  H   UNL     1     -68.870 -55.138 -28.908  0.00  0.00    +0.000 HD
ENDBRANCH  20  21
ENDBRANCH  13  20
ENDBRANCH   2  13
TORSDOF 6
ENDMDL
MODEL 6
REMARK VINA RESULT:      -4.9     21.427     25.298
REMARK  Name = Hyoscyamine.pdbqt.pdb
REMARK  6 active torsions:
REMARK  status: ('A' for Active; 'I' for Inactive)
REMARK    1  A    between atoms: C_2  and  O_3
REMARK    2  A    between atoms: C_2  and  C_13
REMARK    3  A    between atoms: O_3  and  C_4
REMARK    4  A    between atoms: C_13  and  C_14
REMARK    5  A    between atoms: C_13  and  C_20
REMARK    6  A    between atoms: C_20  and  O_21
REMARK                            x       y       z     vdW  Elec       q    Type
REMARK                         _______ _______ _______ _____ _____    ______ ____
ROOT
ATOM      1  O   UNL     1     -65.683 -45.802 -53.440  0.00  0.00    +0.000 OA
ATOM      2  C   UNL     1     -64.518 -46.177 -53.378  0.00  0.00    +0.000 C 
ENDROOT
BRANCH   2   3
ATOM      3  O   UNL     1     -63.457 -45.670 -54.069  0.00  0.00    +0.000 OA
BRANCH   3   4
ATOM      4  C   UNL     1     -63.741 -45.451 -55.417  0.00  0.00    +0.000 C 
ATOM      5  C   UNL     1     -63.793 -46.556 -56.358  0.00  0.00    +0.000 C 
ATOM      6  C   UNL     1     -63.270 -46.569 -57.730  0.00  0.00    +0.000 C 
ATOM      7  N   UNL     1     -61.931 -45.826 -57.628  0.00  0.00    +0.000 NA
ATOM      8  C   UNL     1     -64.055 -45.760 -58.647  0.00  0.00    +0.000 C 
ATOM      9  C   UNL     1     -62.513 -44.412 -57.476  0.00  0.00    +0.000 C 
ATOM     10  C   UNL     1     -61.148 -45.955 -58.866  0.00  0.00    +0.000 C 
ATOM     11  C   UNL     1     -63.556 -44.323 -58.488  0.00  0.00    +0.000 C 
ATOM     12  C   UNL     1     -63.037 -44.384 -56.102  0.00  0.00    +0.000 C 
ENDBRANCH   3   4
ENDBRANCH   2   3
BRANCH   2  13
ATOM     13  C   UNL     1     -64.081 -47.322 -52.524  0.00  0.00    +0.000 C 
BRANCH  13  14
ATOM     14  C   UNL     1     -64.462 -48.724 -52.776  0.00  0.00    +0.000 A 
ATOM     15  C   UNL     1     -65.450 -49.338 -51.999  0.00  0.00    +0.000 A 
ATOM     16  C   UNL     1     -65.795 -50.674 -52.202  0.00  0.00    +0.000 A 
ATOM     17  C   UNL     1     -65.146 -51.417 -53.182  0.00  0.00    +0.000 A 
ATOM     18  C   UNL     1     -64.154 -50.825 -53.957  0.00  0.00    +0.000 A 
ATOM     19  C   UNL     1     -63.814 -49.489 -53.749  0.00  0.00    +0.000 A 
ENDBRANCH  13  14
BRANCH  13  20
ATOM     20  C   UNL     1     -63.190 -47.021 -51.446  0.00  0.00    +0.000 C 
BRANCH  20  21
ATOM     21  O   UNL     1     -62.363 -46.741 -50.444  0.00  0.00    +0.000 OA
ATOM     22  H   UNL     1     -62.634 -45.921 -49.997  0.00  0.00    +0.000 HD
ENDBRANCH  20  21
ENDBRANCH  13  20
ENDBRANCH   2  13
TORSDOF 6
ENDMDL
MODEL 7
REMARK VINA RESULT:      -4.8     39.545     43.800
REMARK  Name = Hyoscyamine.pdbqt.pdb
REMARK  6 active torsions:
REMARK  status: ('A' for Active; 'I' for Inactive)
REMARK    1  A    between atoms: C_2  and  O_3
REMARK    2  A    between atoms: C_2  and  C_13
REMARK    3  A    between atoms: O_3  and  C_4
REMARK    4  A    between atoms: C_13  and  C_14
REMARK    5  A    between atoms: C_13  and  C_20
REMARK    6  A    between atoms: C_20  and  O_21
REMARK                            x       y       z     vdW  Elec       q    Type
REMARK                         _______ _______ _______ _____ _____    ______ ____
ROOT
ATOM      1  O   UNL     1     -66.999 -62.179 -76.680  0.00  0.00    +0.000 OA
ATOM      2  C   UNL     1     -66.177 -61.421 -76.180  0.00  0.00    +0.000 C 
ENDROOT
BRANCH   2   3
ATOM      3  O   UNL     1     -64.853 -61.325 -76.497  0.00  0.00    +0.000 OA
BRANCH   3   4
ATOM      4  C   UNL     1     -64.553 -60.184 -77.241  0.00  0.00    +0.000 C 
ATOM      5  C   UNL     1     -65.267 -59.886 -78.470  0.00  0.00    +0.000 C 
ATOM      6  C   UNL     1     -64.694 -59.360 -79.716  0.00  0.00    +0.000 C 
ATOM      7  N   UNL     1     -63.368 -60.118 -79.867  0.00  0.00    +0.000 NA
ATOM      8  C   UNL     1     -64.297 -57.967 -79.617  0.00  0.00    +0.000 C 
ATOM      9  C   UNL     1     -62.598 -59.367 -78.769  0.00  0.00    +0.000 C 
ATOM     10  C   UNL     1     -62.770 -59.896 -81.191  0.00  0.00    +0.000 C 
ATOM     11  C   UNL     1     -62.901 -57.960 -78.991  0.00  0.00    +0.000 C 
ATOM     12  C   UNL     1     -63.161 -59.889 -77.514  0.00  0.00    +0.000 C 
ENDBRANCH   3   4
ENDBRANCH   2   3
BRANCH   2  13
ATOM     13  C   UNL     1     -66.514 -60.478 -75.072  0.00  0.00    +0.000 C 
BRANCH  13  14
ATOM     14  C   UNL     1     -66.001 -60.613 -73.696  0.00  0.00    +0.000 A 
ATOM     15  C   UNL     1     -64.893 -61.425 -73.432  0.00  0.00    +0.000 A 
ATOM     16  C   UNL     1     -64.420 -61.591 -72.131  0.00  0.00    +0.000 A 
ATOM     17  C   UNL     1     -65.058 -60.952 -71.073  0.00  0.00    +0.000 A 
ATOM     18  C   UNL     1     -66.168 -60.149 -71.317  0.00  0.00    +0.000 A 
ATOM     19  C   UNL     1     -66.636 -59.987 -72.620  0.00  0.00    +0.000 A 
ENDBRANCH  13  14
BRANCH  13  20
ATOM     20  C   UNL     1     -67.329 -59.351 -75.409  0.00  0.00    +0.000 C 
BRANCH  20  21
ATOM     21  O   UNL     1     -68.087 -58.305 -75.721  0.00  0.00    +0.000 OA
ATOM     22  H   UNL     1     -68.259 -58.282 -76.679  0.00  0.00    +0.000 HD
ENDBRANCH  20  21
ENDBRANCH  13  20
ENDBRANCH   2  13
TORSDOF 6
ENDMDL
MODEL 8
REMARK VINA RESULT:      -4.8     16.529     19.185
REMARK  Name = Hyoscyamine.pdbqt.pdb
REMARK  6 active torsions:
REMARK  status: ('A' for Active; 'I' for Inactive)
REMARK    1  A    between atoms: C_2  and  O_3
REMARK    2  A    between atoms: C_2  and  C_13
REMARK    3  A    between atoms: O_3  and  C_4
REMARK    4  A    between atoms: C_13  and  C_14
REMARK    5  A    between atoms: C_13  and  C_20
REMARK    6  A    between atoms: C_20  and  O_21
REMARK                            x       y       z     vdW  Elec       q    Type
REMARK                         _______ _______ _______ _____ _____    ______ ____
ROOT
ATOM      1  O   UNL     1     -62.787 -53.718 -13.841  0.00  0.00    +0.000 OA
ATOM      2  C   UNL     1     -63.876 -54.122 -14.230  0.00  0.00    +0.000 C 
ENDROOT
BRANCH   2   3
ATOM      3  O   UNL     1     -64.492 -55.287 -13.874  0.00  0.00    +0.000 OA
BRANCH   3   4
ATOM      4  C   UNL     1     -63.803 -56.420 -14.305  0.00  0.00    +0.000 C 
ATOM      5  C   UNL     1     -64.220 -57.137 -15.497  0.00  0.00    +0.000 C 
ATOM      6  C   UNL     1     -64.264 -58.594 -15.677  0.00  0.00    +0.000 C 
ATOM      7  N   UNL     1     -64.808 -59.120 -14.342  0.00  0.00    +0.000 NA
ATOM      8  C   UNL     1     -62.946 -59.195 -15.785  0.00  0.00    +0.000 C 
ATOM      9  C   UNL     1     -63.530 -58.896 -13.519  0.00  0.00    +0.000 C 
ATOM     10  C   UNL     1     -65.150 -60.548 -14.425  0.00  0.00    +0.000 C 
ATOM     11  C   UNL     1     -62.450 -59.404 -14.353  0.00  0.00    +0.000 C 
ATOM     12  C   UNL     1     -63.476 -57.439 -13.327  0.00  0.00    +0.000 C 
ENDBRANCH   3   4
ENDBRANCH   2   3
BRANCH   2  13
ATOM     13  C   UNL     1     -64.707 -53.380 -15.224  0.00  0.00    +0.000 C 
BRANCH  13  14
ATOM     14  C   UNL     1     -64.511 -53.467 -16.683  0.00  0.00    +0.000 A 
ATOM     15  C   UNL     1     -65.543 -53.106 -17.557  0.00  0.00    +0.000 A 
ATOM     16  C   UNL     1     -65.384 -53.217 -18.938  0.00  0.00    +0.000 A 
ATOM     17  C   UNL     1     -64.191 -53.701 -19.463  0.00  0.00    +0.000 A 
ATOM     18  C   UNL     1     -63.159 -54.075 -18.608  0.00  0.00    +0.000 A 
ATOM     19  C   UNL     1     -63.324 -53.961 -17.228  0.00  0.00    +0.000 A 
ENDBRANCH  13  14
BRANCH  13  20
ATOM     20  C   UNL     1     -65.790 -52.600 -14.708  0.00  0.00    +0.000 C 
BRANCH  20  21
ATOM     21  O   UNL     1     -66.796 -51.876 -14.229  0.00  0.00    +0.000 OA
ATOM     22  H   UNL     1     -67.144 -52.274 -13.412  0.00  0.00    +0.000 HD
ENDBRANCH  20  21
ENDBRANCH  13  20
ENDBRANCH   2  13
TORSDOF 6
ENDMDL
MODEL 9
REMARK VINA RESULT:      -4.8      3.932      8.169
REMARK  Name = Hyoscyamine.pdbqt.pdb
REMARK  6 active torsions:
REMARK  status: ('A' for Active; 'I' for Inactive)
REMARK    1  A    between atoms: C_2  and  O_3
REMARK    2  A    between atoms: C_2  and  C_13
REMARK    3  A    between atoms: O_3  and  C_4
REMARK    4  A    between atoms: C_13  and  C_14
REMARK    5  A    between atoms: C_13  and  C_20
REMARK    6  A    between atoms: C_20  and  O_21
REMARK                            x       y       z     vdW  Elec       q    Type
REMARK                         _______ _______ _______ _____ _____    ______ ____
ROOT
ATOM      1  O   UNL     1     -70.103 -57.149 -37.573  0.00  0.00    +0.000 OA
ATOM      2  C   UNL     1     -68.924 -57.089 -37.245  0.00  0.00    +0.000 C 
ENDROOT
BRANCH   2   3
ATOM      3  O   UNL     1     -67.959 -56.302 -37.803  0.00  0.00    +0.000 OA
BRANCH   3   4
ATOM      4  C   UNL     1     -68.148 -56.094 -39.170  0.00  0.00    +0.000 C 
ATOM      5  C   UNL     1     -68.019 -57.189 -40.115  0.00  0.00    +0.000 C 
ATOM      6  C   UNL     1     -67.385 -57.139 -41.438  0.00  0.00    +0.000 C 
ATOM      7  N   UNL     1     -66.133 -56.277 -41.221  0.00  0.00    +0.000 NA
ATOM      8  C   UNL     1     -68.162 -56.396 -42.415  0.00  0.00    +0.000 C 
ATOM      9  C   UNL     1     -66.855 -54.925 -41.114  0.00  0.00    +0.000 C 
ATOM     10  C   UNL     1     -65.241 -56.320 -42.389  0.00  0.00    +0.000 C 
ATOM     11  C   UNL     1     -67.813 -54.921 -42.210  0.00  0.00    +0.000 C 
ATOM     12  C   UNL     1     -67.492 -54.960 -39.789  0.00  0.00    +0.000 C 
ENDBRANCH   3   4
ENDBRANCH   2   3
BRANCH   2  13
ATOM     13  C   UNL     1     -68.340 -57.937 -36.164  0.00  0.00    +0.000 C 
BRANCH  13  14
ATOM     14  C   UNL     1     -68.528 -57.674 -34.725  0.00  0.00    +0.000 A 
ATOM     15  C   UNL     1     -67.685 -58.273 -33.782  0.00  0.00    +0.000 A 
ATOM     16  C   UNL     1     -67.873 -58.062 -32.417  0.00  0.00    +0.000 A 
ATOM     17  C   UNL     1     -68.915 -57.254 -31.976  0.00  0.00    +0.000 A 
ATOM     18  C   UNL     1     -69.768 -56.659 -32.899  0.00  0.00    +0.000 A 
ATOM     19  C   UNL     1     -69.576 -56.874 -34.263  0.00  0.00    +0.000 A 
ENDBRANCH  13  14
BRANCH  13  20
ATOM     20  C   UNL     1     -67.617 -59.101 -36.575  0.00  0.00    +0.000 C 
BRANCH  20  21
ATOM     21  O   UNL     1     -66.946 -60.182 -36.956  0.00  0.00    +0.000 OA
ATOM     22  H   UNL     1     -66.442 -60.002 -37.769  0.00  0.00    +0.000 HD
ENDBRANCH  20  21
ENDBRANCH  13  20
ENDBRANCH   2  13
TORSDOF 6
ENDMDL
