MODEL 1
REMARK VINA RESULT:      -6.0      0.000      0.000
REMARK  Name = 
REMARK  21 active torsions:
REMARK  status: ('A' for Active; 'I' for Inactive)
REMARK    1  A    between atoms: O_3  and  C_22
REMARK    2  A    between atoms: O_3  and  C_28
REMARK    3  A    between atoms: O_4  and  C_25
REMARK    4  A    between atoms: O_4  and  C_30
REMARK    5  A    between atoms: O_5  and  C_16
REMARK    6  A    between atoms: O_6  and  C_17
REMARK    7  A    between atoms: O_7  and  C_18
REMARK    8  A    between atoms: O_8  and  C_20
REMARK    9  A    between atoms: O_9  and  C_21
REMARK   10  A    between atoms: O_10  and  C_23
REMARK   11  A    between atoms: O_11  and  C_26
REMARK   12  A    between atoms: O_13  and  C_36
REMARK   13  A    between atoms: O_15  and  C_45
REMARK   14  A    between atoms: O_15  and  C_48
REMARK   15  A    between atoms: C_19  and  C_26
REMARK   16  A    between atoms: C_24  and  C_27
REMARK   17  A    between atoms: C_29  and  C_37
REMARK   18  A    between atoms: C_35  and  C_38
REMARK   19  A    between atoms: C_37  and  C_39
REMARK   20  A    between atoms: C_42  and  C_46
REMARK   21  A    between atoms: C_42  and  C_47
REMARK                            x       y       z     vdW  Elec       q    Type
REMARK                         _______ _______ _______ _____ _____    ______ ____
ROOT
ATOM      1  O   UNL     1     -65.019 -60.692 -76.208  0.00  0.00    +0.000 OA
ATOM      2  O   UNL     1     -68.446 -58.522 -76.034  0.00  0.00    +0.000 OA
ATOM      3  C   UNL     1     -64.733 -58.882 -79.375  0.00  0.00    +0.000 A 
ATOM      4  C   UNL     1     -64.428 -59.753 -78.313  0.00  0.00    +0.000 A 
ATOM      5  C   UNL     1     -67.049 -60.153 -75.012  0.00  0.00    +0.000 A 
ATOM      6  C   UNL     1     -65.334 -59.836 -77.236  0.00  0.00    +0.000 A 
ATOM      7  C   UNL     1     -66.497 -59.066 -77.222  0.00  0.00    +0.000 A 
ATOM      8  C   UNL     1     -67.417 -59.194 -76.085  0.00  0.00    +0.000 A 
ATOM      9  C   UNL     1     -65.878 -58.080 -79.341  0.00  0.00    +0.000 A 
ATOM     10  C   UNL     1     -65.908 -60.848 -75.162  0.00  0.00    +0.000 A 
ATOM     11  C   UNL     1     -66.763 -58.185 -78.274  0.00  0.00    +0.000 A 
ENDROOT
BRANCH  10  12
ATOM     12  C   UNL     1     -65.459 -61.840 -74.173  0.00  0.00    +0.000 A 
ATOM     13  C   UNL     1     -64.612 -61.450 -73.129  0.00  0.00    +0.000 A 
ATOM     14  C   UNL     1     -65.854 -63.181 -74.259  0.00  0.00    +0.000 A 
ATOM     15  C   UNL     1     -64.184 -62.385 -72.183  0.00  0.00    +0.000 A 
ATOM     16  C   UNL     1     -65.426 -64.114 -73.308  0.00  0.00    +0.000 A 
ATOM     17  C   UNL     1     -64.593 -63.718 -72.262  0.00  0.00    +0.000 A 
BRANCH  17  18
ATOM     18  O   UNL     1     -64.108 -64.524 -71.270  0.00  0.00    +0.000 OA
ATOM     19  C   UNL     1     -62.850 -64.167 -70.711  0.00  0.00    +0.000 C 
ENDBRANCH  17  18
ENDBRANCH  10  12
BRANCH  11  20
ATOM     20  O   UNL     1     -67.870 -57.382 -78.319  0.00  0.00    +0.000 OA
ATOM     21  H   UNL     1     -67.584 -56.474 -78.561  0.00  0.00    +0.000 HD
ENDBRANCH  11  20
BRANCH   4  22
ATOM     22  C   UNL     1     -63.182 -60.617 -78.332  0.00  0.00    +0.000 C 
BRANCH  22  23
ATOM     23  C   UNL     1     -63.218 -61.653 -79.426  0.00  0.00    +0.000 C 
ATOM     24  C   UNL     1     -63.925 -62.799 -79.477  0.00  0.00    +0.000 C 
ATOM     25  C   UNL     1     -64.864 -63.297 -78.414  0.00  0.00    +0.000 C 
ATOM     26  C   UNL     1     -63.819 -63.704 -80.677  0.00  0.00    +0.000 C 
ENDBRANCH  22  23
ENDBRANCH   4  22
BRANCH   5  27
ATOM     27  O   UNL     1     -67.918 -60.351 -73.954  0.00  0.00    +0.000 OA
BRANCH  27  33
ATOM     28  O   UNL     1     -67.121 -60.064 -71.742  0.00  0.00    +0.000 OA
ATOM     29  C   UNL     1     -69.985 -59.752 -71.863  0.00  0.00    +0.000 C 
ATOM     30  C   UNL     1     -69.297 -60.450 -70.684  0.00  0.00    +0.000 C 
ATOM     31  C   UNL     1     -69.048 -58.746 -72.532  0.00  0.00    +0.000 C 
ATOM     32  C   UNL     1     -67.967 -61.057 -71.146  0.00  0.00    +0.000 C 
ATOM     33  C   UNL     1     -67.706 -59.422 -72.884  0.00  0.00    +0.000 C 
ATOM     34  C   UNL     1     -67.199 -61.671 -69.979  0.00  0.00    +0.000 C 
BRANCH  29  35
ATOM     35  O   UNL     1     -71.160 -59.082 -71.370  0.00  0.00    +0.000 OA
ATOM     36  H   UNL     1     -70.968 -58.126 -71.477  0.00  0.00    +0.000 HD
ENDBRANCH  29  35
BRANCH  30  37
ATOM     37  O   UNL     1     -70.175 -61.457 -70.167  0.00  0.00    +0.000 OA
ATOM     38  H   UNL     1     -69.607 -62.238 -70.012  0.00  0.00    +0.000 HD
ENDBRANCH  30  37
BRANCH  31  39
ATOM     39  O   UNL     1     -68.880 -57.638 -71.623  0.00  0.00    +0.000 OA
ATOM     40  H   UNL     1     -67.921 -57.489 -71.525  0.00  0.00    +0.000 HD
ENDBRANCH  31  39
ENDBRANCH  27  33
ENDBRANCH   5  27
BRANCH   3  41
ATOM     41  O   UNL     1     -63.839 -58.746 -80.407  0.00  0.00    +0.000 OA
BRANCH  41  47
ATOM     42  O   UNL     1     -63.484 -56.417 -80.629  0.00  0.00    +0.000 OA
ATOM     43  C   UNL     1     -60.676 -56.827 -80.954  0.00  0.00    +0.000 C 
ATOM     44  C   UNL     1     -61.341 -55.492 -81.300  0.00  0.00    +0.000 C 
ATOM     45  C   UNL     1     -61.676 -57.978 -81.051  0.00  0.00    +0.000 C 
ATOM     46  C   UNL     1     -62.594 -55.305 -80.433  0.00  0.00    +0.000 C 
ATOM     47  C   UNL     1     -62.918 -57.655 -80.200  0.00  0.00    +0.000 C 
BRANCH  44  48
ATOM     48  O   UNL     1     -60.401 -54.435 -81.095  0.00  0.00    +0.000 OA
ATOM     49  H   UNL     1     -59.995 -54.280 -81.973  0.00  0.00    +0.000 HD
ENDBRANCH  44  48
BRANCH  45  50
ATOM     50  O   UNL     1     -61.025 -59.184 -80.619  0.00  0.00    +0.000 OA
ATOM     51  H   UNL     1     -61.742 -59.818 -80.419  0.00  0.00    +0.000 HD
ENDBRANCH  45  50
BRANCH  43  52
ATOM     52  O   UNL     1     -59.576 -57.046 -81.852  0.00  0.00    +0.000 OA
ATOM     53  H   UNL     1     -58.841 -56.511 -81.488  0.00  0.00    +0.000 HD
ENDBRANCH  43  52
BRANCH  46  54
ATOM     54  C   UNL     1     -63.338 -54.016 -80.806  0.00  0.00    +0.000 C 
BRANCH  54  55
ATOM     55  O   UNL     1     -62.972 -53.612 -82.128  0.00  0.00    +0.000 OA
ATOM     56  H   UNL     1     -62.592 -54.391 -82.566  0.00  0.00    +0.000 HD
ENDBRANCH  54  55
ENDBRANCH  46  54
ENDBRANCH  41  47
ENDBRANCH   3  41
TORSDOF 17
ENDMDL
MODEL 2
REMARK VINA RESULT:      -6.0     56.498     60.168
REMARK  Name = 
REMARK  21 active torsions:
REMARK  status: ('A' for Active; 'I' for Inactive)
REMARK    1  A    between atoms: O_3  and  C_22
REMARK    2  A    between atoms: O_3  and  C_28
REMARK    3  A    between atoms: O_4  and  C_25
REMARK    4  A    between atoms: O_4  and  C_30
REMARK    5  A    between atoms: O_5  and  C_16
REMARK    6  A    between atoms: O_6  and  C_17
REMARK    7  A    between atoms: O_7  and  C_18
REMARK    8  A    between atoms: O_8  and  C_20
REMARK    9  A    between atoms: O_9  and  C_21
REMARK   10  A    between atoms: O_10  and  C_23
REMARK   11  A    between atoms: O_11  and  C_26
REMARK   12  A    between atoms: O_13  and  C_36
REMARK   13  A    between atoms: O_15  and  C_45
REMARK   14  A    between atoms: O_15  and  C_48
REMARK   15  A    between atoms: C_19  and  C_26
REMARK   16  A    between atoms: C_24  and  C_27
REMARK   17  A    between atoms: C_29  and  C_37
REMARK   18  A    between atoms: C_35  and  C_38
REMARK   19  A    between atoms: C_37  and  C_39
REMARK   20  A    between atoms: C_42  and  C_46
REMARK   21  A    between atoms: C_42  and  C_47
REMARK                            x       y       z     vdW  Elec       q    Type
REMARK                         _______ _______ _______ _____ _____    ______ ____
ROOT
ATOM      1  O   UNL     1     -63.719 -57.425 -15.823  0.00  0.00    +0.000 OA
ATOM      2  O   UNL     1     -60.119 -57.178 -17.684  0.00  0.00    +0.000 OA
ATOM      3  C   UNL     1     -63.013 -60.993 -16.217  0.00  0.00    +0.000 A 
ATOM      4  C   UNL     1     -63.675 -59.804 -15.864  0.00  0.00    +0.000 A 
ATOM      5  C   UNL     1     -61.981 -56.027 -16.756  0.00  0.00    +0.000 A 
ATOM      6  C   UNL     1     -63.057 -58.576 -16.177  0.00  0.00    +0.000 A 
ATOM      7  C   UNL     1     -61.816 -58.545 -16.814  0.00  0.00    +0.000 A 
ATOM      8  C   UNL     1     -61.216 -57.243 -17.132  0.00  0.00    +0.000 A 
ATOM      9  C   UNL     1     -61.751 -60.962 -16.819  0.00  0.00    +0.000 A 
ATOM     10  C   UNL     1     -63.177 -56.201 -16.165  0.00  0.00    +0.000 A 
ATOM     11  C   UNL     1     -61.163 -59.740 -17.128  0.00  0.00    +0.000 A 
ENDROOT
BRANCH  10  12
ATOM     12  C   UNL     1     -64.028 -55.068 -15.772  0.00  0.00    +0.000 A 
ATOM     13  C   UNL     1     -65.316 -54.944 -16.305  0.00  0.00    +0.000 A 
ATOM     14  C   UNL     1     -63.571 -54.093 -14.876  0.00  0.00    +0.000 A 
ATOM     15  C   UNL     1     -66.132 -53.874 -15.933  0.00  0.00    +0.000 A 
ATOM     16  C   UNL     1     -64.392 -53.023 -14.502  0.00  0.00    +0.000 A 
ATOM     17  C   UNL     1     -65.680 -52.912 -15.027  0.00  0.00    +0.000 A 
BRANCH  17  18
ATOM     18  O   UNL     1     -66.581 -51.924 -14.745  0.00  0.00    +0.000 OA
ATOM     19  C   UNL     1     -66.536 -50.762 -15.564  0.00  0.00    +0.000 C 
ENDBRANCH  17  18
ENDBRANCH  10  12
BRANCH  11  20
ATOM     20  O   UNL     1     -59.937 -59.789 -17.733  0.00  0.00    +0.000 OA
ATOM     21  H   UNL     1     -59.376 -60.431 -17.243  0.00  0.00    +0.000 HD
ENDBRANCH  11  20
BRANCH   4  22
ATOM     22  C   UNL     1     -65.037 -59.826 -15.197  0.00  0.00    +0.000 C 
BRANCH  22  23
ATOM     23  C   UNL     1     -64.946 -59.680 -13.700  0.00  0.00    +0.000 C 
ATOM     24  C   UNL     1     -65.373 -60.528 -12.744  0.00  0.00    +0.000 C 
ATOM     25  C   UNL     1     -66.052 -61.848 -12.983  0.00  0.00    +0.000 C 
ATOM     26  C   UNL     1     -65.181 -60.190 -11.288  0.00  0.00    +0.000 C 
ENDBRANCH  22  23
ENDBRANCH   4  22
BRANCH   5  27
ATOM     27  O   UNL     1     -61.482 -54.782 -17.094  0.00  0.00    +0.000 OA
BRANCH  27  33
ATOM     28  O   UNL     1     -60.486 -53.498 -18.818  0.00  0.00    +0.000 OA
ATOM     29  C   UNL     1     -63.342 -53.101 -18.743  0.00  0.00    +0.000 C 
ATOM     30  C   UNL     1     -62.373 -51.950 -19.042  0.00  0.00    +0.000 C 
ATOM     31  C   UNL     1     -62.738 -54.448 -19.140  0.00  0.00    +0.000 C 
ATOM     32  C   UNL     1     -61.014 -52.235 -18.391  0.00  0.00    +0.000 C 
ATOM     33  C   UNL     1     -61.339 -54.610 -18.510  0.00  0.00    +0.000 C 
ATOM     34  C   UNL     1     -59.987 -51.166 -18.751  0.00  0.00    +0.000 C 
BRANCH  29  35
ATOM     35  O   UNL     1     -64.559 -52.869 -19.475  0.00  0.00    +0.000 OA
ATOM     36  H   UNL     1     -64.658 -51.893 -19.495  0.00  0.00    +0.000 HD
ENDBRANCH  29  35
BRANCH  30  37
ATOM     37  O   UNL     1     -62.939 -50.730 -18.550  0.00  0.00    +0.000 OA
ATOM     38  H   UNL     1     -63.779 -50.621 -19.040  0.00  0.00    +0.000 HD
ENDBRANCH  30  37
BRANCH  31  39
ATOM     39  O   UNL     1     -62.697 -54.498 -20.582  0.00  0.00    +0.000 OA
ATOM     40  H   UNL     1     -62.997 -53.629 -20.909  0.00  0.00    +0.000 HD
ENDBRANCH  31  39
ENDBRANCH  27  33
ENDBRANCH   5  27
BRANCH   3  41
ATOM     41  O   UNL     1     -63.571 -62.198 -15.873  0.00  0.00    +0.000 OA
BRANCH  41  47
ATOM     42  O   UNL     1     -64.773 -62.385 -17.903  0.00  0.00    +0.000 OA
ATOM     43  C   UNL     1     -64.880 -65.227 -17.635  0.00  0.00    +0.000 C 
ATOM     44  C   UNL     1     -65.769 -64.477 -18.631  0.00  0.00    +0.000 C 
ATOM     45  C   UNL     1     -64.475 -64.321 -16.474  0.00  0.00    +0.000 C 
ATOM     46  C   UNL     1     -65.072 -63.180 -19.064  0.00  0.00    +0.000 C 
ATOM     47  C   UNL     1     -63.850 -63.025 -17.023  0.00  0.00    +0.000 C 
BRANCH  44  48
ATOM     48  O   UNL     1     -66.035 -65.326 -19.750  0.00  0.00    +0.000 OA
ATOM     49  H   UNL     1     -66.585 -64.786 -20.355  0.00  0.00    +0.000 HD
ENDBRANCH  44  48
BRANCH  45  50
ATOM     50  O   UNL     1     -63.564 -65.044 -15.629  0.00  0.00    +0.000 OA
ATOM     51  H   UNL     1     -63.847 -65.979 -15.668  0.00  0.00    +0.000 HD
ENDBRANCH  45  50
BRANCH  43  52
ATOM     52  O   UNL     1     -65.591 -66.376 -17.148  0.00  0.00    +0.000 OA
ATOM     53  H   UNL     1     -65.430 -66.385 -16.183  0.00  0.00    +0.000 HD
ENDBRANCH  43  52
BRANCH  46  54
ATOM     54  C   UNL     1     -65.965 -62.356 -20.000  0.00  0.00    +0.000 C 
BRANCH  54  55
ATOM     55  O   UNL     1     -67.337 -62.694 -19.780  0.00  0.00    +0.000 OA
ATOM     56  H   UNL     1     -67.668 -62.093 -19.091  0.00  0.00    +0.000 HD
ENDBRANCH  54  55
ENDBRANCH  46  54
ENDBRANCH  41  47
ENDBRANCH   3  41
TORSDOF 17
ENDMDL
MODEL 3
REMARK VINA RESULT:      -5.9     42.520     48.836
REMARK  Name = 
REMARK  21 active torsions:
REMARK  status: ('A' for Active; 'I' for Inactive)
REMARK    1  A    between atoms: O_3  and  C_22
REMARK    2  A    between atoms: O_3  and  C_28
REMARK    3  A    between atoms: O_4  and  C_25
REMARK    4  A    between atoms: O_4  and  C_30
REMARK    5  A    between atoms: O_5  and  C_16
REMARK    6  A    between atoms: O_6  and  C_17
REMARK    7  A    between atoms: O_7  and  C_18
REMARK    8  A    between atoms: O_8  and  C_20
REMARK    9  A    between atoms: O_9  and  C_21
REMARK   10  A    between atoms: O_10  and  C_23
REMARK   11  A    between atoms: O_11  and  C_26
REMARK   12  A    between atoms: O_13  and  C_36
REMARK   13  A    between atoms: O_15  and  C_45
REMARK   14  A    between atoms: O_15  and  C_48
REMARK   15  A    between atoms: C_19  and  C_26
REMARK   16  A    between atoms: C_24  and  C_27
REMARK   17  A    between atoms: C_29  and  C_37
REMARK   18  A    between atoms: C_35  and  C_38
REMARK   19  A    between atoms: C_37  and  C_39
REMARK   20  A    between atoms: C_42  and  C_46
REMARK   21  A    between atoms: C_42  and  C_47
REMARK                            x       y       z     vdW  Elec       q    Type
REMARK                         _______ _______ _______ _____ _____    ______ ____
ROOT
ATOM      1  O   UNL     1     -72.316 -57.171 -27.272  0.00  0.00    +0.000 OA
ATOM      2  O   UNL     1     -73.416 -60.949 -28.273  0.00  0.00    +0.000 OA
ATOM      3  C   UNL     1     -70.736 -57.392 -30.565  0.00  0.00    +0.000 A 
ATOM      4  C   UNL     1     -71.148 -56.874 -29.324  0.00  0.00    +0.000 A 
ATOM      5  C   UNL     1     -73.452 -59.212 -26.650  0.00  0.00    +0.000 A 
ATOM      6  C   UNL     1     -71.922 -57.696 -28.480  0.00  0.00    +0.000 A 
ATOM      7  C   UNL     1     -72.277 -58.986 -28.872  0.00  0.00    +0.000 A 
ATOM      8  C   UNL     1     -73.075 -59.811 -27.956  0.00  0.00    +0.000 A 
ATOM      9  C   UNL     1     -71.127 -58.671 -30.975  0.00  0.00    +0.000 A 
ATOM     10  C   UNL     1     -73.025 -57.964 -26.390  0.00  0.00    +0.000 A 
ATOM     11  C   UNL     1     -71.882 -59.468 -30.123  0.00  0.00    +0.000 A 
ENDROOT
BRANCH  10  12
ATOM     12  C   UNL     1     -73.321 -57.283 -25.120  0.00  0.00    +0.000 A 
ATOM     13  C   UNL     1     -72.818 -57.796 -23.919  0.00  0.00    +0.000 A 
ATOM     14  C   UNL     1     -74.113 -56.128 -25.083  0.00  0.00    +0.000 A 
ATOM     15  C   UNL     1     -73.091 -57.153 -22.709  0.00  0.00    +0.000 A 
ATOM     16  C   UNL     1     -74.382 -55.484 -23.870  0.00  0.00    +0.000 A 
ATOM     17  C   UNL     1     -73.867 -55.992 -22.677  0.00  0.00    +0.000 A 
BRANCH  17  18
ATOM     18  O   UNL     1     -74.051 -55.461 -21.431  0.00  0.00    +0.000 OA
ATOM     19  C   UNL     1     -73.072 -55.776 -20.449  0.00  0.00    +0.000 C 
ENDBRANCH  17  18
ENDBRANCH  10  12
BRANCH  11  20
ATOM     20  O   UNL     1     -72.210 -60.714 -30.585  0.00  0.00    +0.000 OA
ATOM     21  H   UNL     1     -71.994 -61.370 -29.885  0.00  0.00    +0.000 HD
ENDBRANCH  11  20
BRANCH   4  22
ATOM     22  C   UNL     1     -70.743 -55.483 -28.875  0.00  0.00    +0.000 C 
BRANCH  22  23
ATOM     23  C   UNL     1     -71.440 -54.402 -29.658  0.00  0.00    +0.000 C 
ATOM     24  C   UNL     1     -72.662 -53.870 -29.457  0.00  0.00    +0.000 C 
ATOM     25  C   UNL     1     -73.617 -54.258 -28.362  0.00  0.00    +0.000 C 
ATOM     26  C   UNL     1     -73.178 -52.783 -30.365  0.00  0.00    +0.000 C 
ENDBRANCH  22  23
ENDBRANCH   4  22
BRANCH   5  27
ATOM     27  O   UNL     1     -74.149 -59.976 -25.731  0.00  0.00    +0.000 OA
BRANCH  27  33
ATOM     28  O   UNL     1     -76.124 -59.046 -24.810  0.00  0.00    +0.000 OA
ATOM     29  C   UNL     1     -76.103 -61.917 -24.541  0.00  0.00    +0.000 C 
ATOM     30  C   UNL     1     -76.659 -61.006 -23.439  0.00  0.00    +0.000 C 
ATOM     31  C   UNL     1     -76.204 -61.249 -25.912  0.00  0.00    +0.000 C 
ATOM     32  C   UNL     1     -75.977 -59.633 -23.510  0.00  0.00    +0.000 C 
ATOM     33  C   UNL     1     -75.570 -59.843 -25.867  0.00  0.00    +0.000 C 
ATOM     34  C   UNL     1     -76.575 -58.660 -22.499  0.00  0.00    +0.000 C 
BRANCH  29  35
ATOM     35  O   UNL     1     -76.854 -63.146 -24.532  0.00  0.00    +0.000 OA
ATOM     36  H   UNL     1     -76.240 -63.812 -24.158  0.00  0.00    +0.000 HD
ENDBRANCH  29  35
BRANCH  30  37
ATOM     37  O   UNL     1     -76.438 -61.629 -22.169  0.00  0.00    +0.000 OA
ATOM     38  H   UNL     1     -75.591 -62.111 -22.263  0.00  0.00    +0.000 HD
ENDBRANCH  30  37
BRANCH  31  39
ATOM     39  O   UNL     1     -77.600 -61.208 -26.275  0.00  0.00    +0.000 OA
ATOM     40  H   UNL     1     -77.668 -61.524 -27.195  0.00  0.00    +0.000 HD
ENDBRANCH  31  39
ENDBRANCH  27  33
ENDBRANCH   5  27
BRANCH   3  41
ATOM     41  O   UNL     1     -70.027 -56.591 -31.423  0.00  0.00    +0.000 OA
BRANCH  41  47
ATOM     42  O   UNL     1     -68.511 -57.305 -33.094  0.00  0.00    +0.000 OA
ATOM     43  C   UNL     1     -70.413 -56.715 -35.141  0.00  0.00    +0.000 C 
ATOM     44  C   UNL     1     -68.937 -56.964 -35.461  0.00  0.00    +0.000 C 
ATOM     45  C   UNL     1     -70.586 -56.211 -33.710  0.00  0.00    +0.000 C 
ATOM     46  C   UNL     1     -68.332 -57.890 -34.396  0.00  0.00    +0.000 C 
ATOM     47  C   UNL     1     -69.886 -57.176 -32.735  0.00  0.00    +0.000 C 
BRANCH  44  48
ATOM     48  O   UNL     1     -68.831 -57.533 -36.767  0.00  0.00    +0.000 OA
ATOM     49  H   UNL     1     -67.928 -57.308 -37.072  0.00  0.00    +0.000 HD
ENDBRANCH  44  48
BRANCH  45  50
ATOM     50  O   UNL     1     -71.992 -56.093 -33.435  0.00  0.00    +0.000 OA
ATOM     51  H   UNL     1     -72.081 -56.151 -32.463  0.00  0.00    +0.000 HD
ENDBRANCH  45  50
BRANCH  43  52
ATOM     52  O   UNL     1     -70.937 -55.756 -36.074  0.00  0.00    +0.000 OA
ATOM     53  H   UNL     1     -71.869 -55.623 -35.807  0.00  0.00    +0.000 HD
ENDBRANCH  43  52
BRANCH  46  54
ATOM     54  C   UNL     1     -66.831 -58.099 -34.632  0.00  0.00    +0.000 C 
BRANCH  54  55
ATOM     55  O   UNL     1     -66.632 -59.178 -35.549  0.00  0.00    +0.000 OA
ATOM     56  H   UNL     1     -66.180 -58.808 -36.326  0.00  0.00    +0.000 HD
ENDBRANCH  54  55
ENDBRANCH  46  54
ENDBRANCH  41  47
ENDBRANCH   3  41
TORSDOF 17
ENDMDL
MODEL 4
REMARK VINA RESULT:      -5.8      3.615      6.903
REMARK  Name = 
REMARK  21 active torsions:
REMARK  status: ('A' for Active; 'I' for Inactive)
REMARK    1  A    between atoms: O_3  and  C_22
REMARK    2  A    between atoms: O_3  and  C_28
REMARK    3  A    between atoms: O_4  and  C_25
REMARK    4  A    between atoms: O_4  and  C_30
REMARK    5  A    between atoms: O_5  and  C_16
REMARK    6  A    between atoms: O_6  and  C_17
REMARK    7  A    between atoms: O_7  and  C_18
REMARK    8  A    between atoms: O_8  and  C_20
REMARK    9  A    between atoms: O_9  and  C_21
REMARK   10  A    between atoms: O_10  and  C_23
REMARK   11  A    between atoms: O_11  and  C_26
REMARK   12  A    between atoms: O_13  and  C_36
REMARK   13  A    between atoms: O_15  and  C_45
REMARK   14  A    between atoms: O_15  and  C_48
REMARK   15  A    between atoms: C_19  and  C_26
REMARK   16  A    between atoms: C_24  and  C_27
REMARK   17  A    between atoms: C_29  and  C_37
REMARK   18  A    between atoms: C_35  and  C_38
REMARK   19  A    between atoms: C_37  and  C_39
REMARK   20  A    between atoms: C_42  and  C_46
REMARK   21  A    between atoms: C_42  and  C_47
REMARK                            x       y       z     vdW  Elec       q    Type
REMARK                         _______ _______ _______ _____ _____    ______ ____
ROOT
ATOM      1  O   UNL     1     -66.504 -61.166 -70.442  0.00  0.00    +0.000 OA
ATOM      2  O   UNL     1     -70.299 -59.981 -71.263  0.00  0.00    +0.000 OA
ATOM      3  C   UNL     1     -66.201 -60.683 -74.056  0.00  0.00    +0.000 A 
ATOM      4  C   UNL     1     -65.860 -60.985 -72.725  0.00  0.00    +0.000 A 
ATOM      5  C   UNL     1     -68.736 -60.716 -69.629  0.00  0.00    +0.000 A 
ATOM      6  C   UNL     1     -66.857 -60.867 -71.736  0.00  0.00    +0.000 A 
ATOM      7  C   UNL     1     -68.146 -60.452 -72.070  0.00  0.00    +0.000 A 
ATOM      8  C   UNL     1     -69.156 -60.354 -71.007  0.00  0.00    +0.000 A 
ATOM      9  C   UNL     1     -67.482 -60.227 -74.383  0.00  0.00    +0.000 A 
ATOM     10  C   UNL     1     -67.466 -61.121 -69.450  0.00  0.00    +0.000 A 
ATOM     11  C   UNL     1     -68.454 -60.127 -73.393  0.00  0.00    +0.000 A 
ENDROOT
BRANCH  10  12
ATOM     12  C   UNL     1     -66.950 -61.524 -68.133  0.00  0.00    +0.000 A 
ATOM     13  C   UNL     1     -66.104 -60.665 -67.423  0.00  0.00    +0.000 A 
ATOM     14  C   UNL     1     -67.279 -62.765 -67.574  0.00  0.00    +0.000 A 
ATOM     15  C   UNL     1     -65.613 -61.038 -66.170  0.00  0.00    +0.000 A 
ATOM     16  C   UNL     1     -66.788 -63.135 -66.316  0.00  0.00    +0.000 A 
ATOM     17  C   UNL     1     -65.956 -62.269 -65.606  0.00  0.00    +0.000 A 
BRANCH  17  18
ATOM     18  O   UNL     1     -65.413 -62.505 -64.374  0.00  0.00    +0.000 OA
ATOM     19  C   UNL     1     -64.012 -62.301 -64.241  0.00  0.00    +0.000 C 
ENDBRANCH  17  18
ENDBRANCH  10  12
BRANCH  11  20
ATOM     20  O   UNL     1     -69.689 -59.693 -73.792  0.00  0.00    +0.000 OA
ATOM     21  H   UNL     1     -69.577 -58.842 -74.272  0.00  0.00    +0.000 HD
ENDBRANCH  11  20
BRANCH   4  22
ATOM     22  C   UNL     1     -64.470 -61.466 -72.356  0.00  0.00    +0.000 C 
BRANCH  22  23
ATOM     23  C   UNL     1     -64.345 -62.966 -72.422  0.00  0.00    +0.000 C 
ATOM     24  C   UNL     1     -64.164 -63.841 -71.413  0.00  0.00    +0.000 C 
ATOM     25  C   UNL     1     -64.050 -63.487 -69.956  0.00  0.00    +0.000 C 
ATOM     26  C   UNL     1     -64.066 -65.318 -71.696  0.00  0.00    +0.000 C 
ENDBRANCH  22  23
ENDBRANCH   4  22
BRANCH   5  27
ATOM     27  O   UNL     1     -69.671 -60.699 -68.610  0.00  0.00    +0.000 OA
BRANCH  27  33
ATOM     28  O   UNL     1     -69.160 -59.188 -66.858  0.00  0.00    +0.000 OA
ATOM     29  C   UNL     1     -71.916 -60.030 -66.735  0.00  0.00    +0.000 C 
ATOM     30  C   UNL     1     -71.076 -59.825 -65.468  0.00  0.00    +0.000 C 
ATOM     31  C   UNL     1     -71.401 -59.164 -67.885  0.00  0.00    +0.000 C 
ATOM     32  C   UNL     1     -69.592 -60.043 -65.790  0.00  0.00    +0.000 C 
ATOM     33  C   UNL     1     -69.886 -59.385 -68.080  0.00  0.00    +0.000 C 
ATOM     34  C   UNL     1     -68.709 -59.746 -64.582  0.00  0.00    +0.000 C 
BRANCH  29  35
ATOM     35  O   UNL     1     -73.282 -59.691 -66.432  0.00  0.00    +0.000 OA
ATOM     36  H   UNL     1     -73.817 -60.220 -67.060  0.00  0.00    +0.000 HD
ENDBRANCH  29  35
BRANCH  30  37
ATOM     37  O   UNL     1     -71.528 -60.739 -64.462  0.00  0.00    +0.000 OA
ATOM     38  H   UNL     1     -72.441 -60.977 -64.722  0.00  0.00    +0.000 HD
ENDBRANCH  30  37
BRANCH  31  39
ATOM     39  O   UNL     1     -71.718 -57.792 -67.571  0.00  0.00    +0.000 OA
ATOM     40  H   UNL     1     -70.875 -57.339 -67.381  0.00  0.00    +0.000 HD
ENDBRANCH  31  39
ENDBRANCH  27  33
ENDBRANCH   5  27
BRANCH   3  41
ATOM     41  O   UNL     1     -65.233 -60.740 -75.025  0.00  0.00    +0.000 OA
BRANCH  41  47
ATOM     42  O   UNL     1     -65.438 -62.873 -76.028  0.00  0.00    +0.000 OA
ATOM     43  C   UNL     1     -65.143 -61.733 -78.630  0.00  0.00    +0.000 C 
ATOM     44  C   UNL     1     -65.016 -63.240 -78.392  0.00  0.00    +0.000 C 
ATOM     45  C   UNL     1     -64.810 -60.948 -77.363  0.00  0.00    +0.000 C 
ATOM     46  C   UNL     1     -65.859 -63.638 -77.171  0.00  0.00    +0.000 C 
ATOM     47  C   UNL     1     -65.662 -61.474 -76.191  0.00  0.00    +0.000 C 
BRANCH  44  48
ATOM     48  O   UNL     1     -65.438 -63.936 -79.566  0.00  0.00    +0.000 OA
ATOM     49  H   UNL     1     -65.156 -63.369 -80.314  0.00  0.00    +0.000 HD
ENDBRANCH  44  48
BRANCH  45  50
ATOM     50  O   UNL     1     -65.044 -59.553 -77.616  0.00  0.00    +0.000 OA
ATOM     51  H   UNL     1     -64.492 -59.326 -78.391  0.00  0.00    +0.000 HD
ENDBRANCH  45  50
BRANCH  43  52
ATOM     52  O   UNL     1     -64.260 -61.354 -79.698  0.00  0.00    +0.000 OA
ATOM     53  H   UNL     1     -63.634 -62.101 -79.788  0.00  0.00    +0.000 HD
ENDBRANCH  43  52
BRANCH  46  54
ATOM     54  C   UNL     1     -65.694 -65.128 -76.847  0.00  0.00    +0.000 C 
BRANCH  54  55
ATOM     55  O   UNL     1     -64.600 -65.667 -77.592  0.00  0.00    +0.000 OA
ATOM     56  H   UNL     1     -64.975 -66.308 -78.220  0.00  0.00    +0.000 HD
ENDBRANCH  54  55
ENDBRANCH  46  54
ENDBRANCH  41  47
ENDBRANCH   3  41
TORSDOF 17
ENDMDL
MODEL 5
REMARK VINA RESULT:      -5.8      1.909     10.846
REMARK  Name = 
REMARK  21 active torsions:
REMARK  status: ('A' for Active; 'I' for Inactive)
REMARK    1  A    between atoms: O_3  and  C_22
REMARK    2  A    between atoms: O_3  and  C_28
REMARK    3  A    between atoms: O_4  and  C_25
REMARK    4  A    between atoms: O_4  and  C_30
REMARK    5  A    between atoms: O_5  and  C_16
REMARK    6  A    between atoms: O_6  and  C_17
REMARK    7  A    between atoms: O_7  and  C_18
REMARK    8  A    between atoms: O_8  and  C_20
REMARK    9  A    between atoms: O_9  and  C_21
REMARK   10  A    between atoms: O_10  and  C_23
REMARK   11  A    between atoms: O_11  and  C_26
REMARK   12  A    between atoms: O_13  and  C_36
REMARK   13  A    between atoms: O_15  and  C_45
REMARK   14  A    between atoms: O_15  and  C_48
REMARK   15  A    between atoms: C_19  and  C_26
REMARK   16  A    between atoms: C_24  and  C_27
REMARK   17  A    between atoms: C_29  and  C_37
REMARK   18  A    between atoms: C_35  and  C_38
REMARK   19  A    between atoms: C_37  and  C_39
REMARK   20  A    between atoms: C_42  and  C_46
REMARK   21  A    between atoms: C_42  and  C_47
REMARK                            x       y       z     vdW  Elec       q    Type
REMARK                         _______ _______ _______ _____ _____    ______ ____
ROOT
ATOM      1  O   UNL     1     -65.078 -57.708 -79.064  0.00  0.00    +0.000 OA
ATOM      2  O   UNL     1     -62.384 -60.535 -80.176  0.00  0.00    +0.000 OA
ATOM      3  C   UNL     1     -66.120 -60.422 -76.843  0.00  0.00    +0.000 A 
ATOM      4  C   UNL     1     -66.079 -59.164 -77.470  0.00  0.00    +0.000 A 
ATOM      5  C   UNL     1     -63.235 -58.337 -80.496  0.00  0.00    +0.000 A 
ATOM      6  C   UNL     1     -65.103 -58.944 -78.464  0.00  0.00    +0.000 A 
ATOM      7  C   UNL     1     -64.197 -59.948 -78.807  0.00  0.00    +0.000 A 
ATOM      8  C   UNL     1     -63.205 -59.677 -79.856  0.00  0.00    +0.000 A 
ATOM      9  C   UNL     1     -65.186 -61.414 -77.159  0.00  0.00    +0.000 A 
ATOM     10  C   UNL     1     -64.176 -57.470 -80.084  0.00  0.00    +0.000 A 
ATOM     11  C   UNL     1     -64.238 -61.179 -78.148  0.00  0.00    +0.000 A 
ENDROOT
BRANCH  10  12
ATOM     12  C   UNL     1     -64.311 -56.125 -80.665  0.00  0.00    +0.000 A 
ATOM     13  C   UNL     1     -64.011 -54.998 -79.892  0.00  0.00    +0.000 A 
ATOM     14  C   UNL     1     -64.750 -55.945 -81.983  0.00  0.00    +0.000 A 
ATOM     15  C   UNL     1     -64.132 -53.718 -80.438  0.00  0.00    +0.000 A 
ATOM     16  C   UNL     1     -64.868 -54.662 -82.528  0.00  0.00    +0.000 A 
ATOM     17  C   UNL     1     -64.554 -53.542 -81.758  0.00  0.00    +0.000 A 
BRANCH  17  18
ATOM     18  O   UNL     1     -64.623 -52.239 -82.167  0.00  0.00    +0.000 OA
ATOM     19  C   UNL     1     -63.520 -51.404 -81.837  0.00  0.00    +0.000 C 
ENDBRANCH  17  18
ENDBRANCH  10  12
BRANCH  11  20
ATOM     20  O   UNL     1     -63.369 -62.203 -78.416  0.00  0.00    +0.000 OA
ATOM     21  H   UNL     1     -62.456 -61.890 -78.227  0.00  0.00    +0.000 HD
ENDBRANCH  11  20
BRANCH   4  22
ATOM     22  C   UNL     1     -67.078 -58.076 -77.126  0.00  0.00    +0.000 C 
BRANCH  22  23
ATOM     23  C   UNL     1     -68.203 -57.993 -78.124  0.00  0.00    +0.000 C 
ATOM     24  C   UNL     1     -68.523 -56.979 -78.951  0.00  0.00    +0.000 C 
ATOM     25  C   UNL     1     -67.789 -55.671 -79.057  0.00  0.00    +0.000 C 
ATOM     26  C   UNL     1     -69.699 -57.100 -79.884  0.00  0.00    +0.000 C 
ENDBRANCH  22  23
ENDBRANCH   4  22
BRANCH   5  27
ATOM     27  O   UNL     1     -62.360 -58.063 -81.532  0.00  0.00    +0.000 OA
BRANCH  27  33
ATOM     28  O   UNL     1     -60.889 -56.290 -80.977  0.00  0.00    +0.000 OA
ATOM     29  C   UNL     1     -60.024 -57.649 -83.369  0.00  0.00    +0.000 C 
ATOM     30  C   UNL     1     -59.904 -56.128 -83.215  0.00  0.00    +0.000 C 
ATOM     31  C   UNL     1     -60.000 -58.345 -82.008  0.00  0.00    +0.000 C 
ATOM     32  C   UNL     1     -60.975 -55.620 -82.242  0.00  0.00    +0.000 C 
ATOM     33  C   UNL     1     -61.049 -57.713 -81.069  0.00  0.00    +0.000 C 
ATOM     34  C   UNL     1     -60.825 -54.125 -81.978  0.00  0.00    +0.000 C 
BRANCH  29  35
ATOM     35  O   UNL     1     -58.927 -58.110 -84.181  0.00  0.00    +0.000 OA
ATOM     36  H   UNL     1     -58.861 -57.456 -84.908  0.00  0.00    +0.000 HD
ENDBRANCH  29  35
BRANCH  30  37
ATOM     37  O   UNL     1     -60.045 -55.521 -84.505  0.00  0.00    +0.000 OA
ATOM     38  H   UNL     1     -60.862 -54.985 -84.448  0.00  0.00    +0.000 HD
ENDBRANCH  30  37
BRANCH  31  39
ATOM     39  O   UNL     1     -58.660 -58.232 -81.486  0.00  0.00    +0.000 OA
ATOM     40  H   UNL     1     -58.733 -58.175 -80.515  0.00  0.00    +0.000 HD
ENDBRANCH  31  39
ENDBRANCH  27  33
ENDBRANCH   5  27
BRANCH   3  41
ATOM     41  O   UNL     1     -67.027 -60.640 -75.837  0.00  0.00    +0.000 OA
BRANCH  41  47
ATOM     42  O   UNL     1     -65.853 -61.251 -73.876  0.00  0.00    +0.000 OA
ATOM     43  C   UNL     1     -67.369 -59.388 -72.329  0.00  0.00    +0.000 C 
ATOM     44  C   UNL     1     -66.525 -60.484 -71.671  0.00  0.00    +0.000 C 
ATOM     45  C   UNL     1     -67.787 -59.793 -73.742  0.00  0.00    +0.000 C 
ATOM     46  C   UNL     1     -65.351 -60.846 -72.591  0.00  0.00    +0.000 C 
ATOM     47  C   UNL     1     -66.541 -60.199 -74.552  0.00  0.00    +0.000 C 
BRANCH  44  48
ATOM     48  O   UNL     1     -66.070 -60.021 -70.399  0.00  0.00    +0.000 OA
ATOM     49  H   UNL     1     -65.407 -59.328 -70.601  0.00  0.00    +0.000 HD
ENDBRANCH  44  48
BRANCH  45  50
ATOM     50  O   UNL     1     -68.485 -58.690 -74.343  0.00  0.00    +0.000 OA
ATOM     51  H   UNL     1     -67.794 -58.105 -74.712  0.00  0.00    +0.000 HD
ENDBRANCH  45  50
BRANCH  43  52
ATOM     52  O   UNL     1     -68.529 -59.142 -71.518  0.00  0.00    +0.000 OA
ATOM     53  H   UNL     1     -68.725 -59.999 -71.088  0.00  0.00    +0.000 HD
ENDBRANCH  43  52
BRANCH  46  54
ATOM     54  C   UNL     1     -64.525 -62.000 -72.006  0.00  0.00    +0.000 C 
BRANCH  54  55
ATOM     55  O   UNL     1     -63.743 -61.526 -70.907  0.00  0.00    +0.000 OA
ATOM     56  H   UNL     1     -64.367 -61.242 -70.218  0.00  0.00    +0.000 HD
ENDBRANCH  54  55
ENDBRANCH  46  54
ENDBRANCH  41  47
ENDBRANCH   3  41
TORSDOF 17
ENDMDL
MODEL 6
REMARK VINA RESULT:      -5.6     17.597     21.189
REMARK  Name = 
REMARK  21 active torsions:
REMARK  status: ('A' for Active; 'I' for Inactive)
REMARK    1  A    between atoms: O_3  and  C_22
REMARK    2  A    between atoms: O_3  and  C_28
REMARK    3  A    between atoms: O_4  and  C_25
REMARK    4  A    between atoms: O_4  and  C_30
REMARK    5  A    between atoms: O_5  and  C_16
REMARK    6  A    between atoms: O_6  and  C_17
REMARK    7  A    between atoms: O_7  and  C_18
REMARK    8  A    between atoms: O_8  and  C_20
REMARK    9  A    between atoms: O_9  and  C_21
REMARK   10  A    between atoms: O_10  and  C_23
REMARK   11  A    between atoms: O_11  and  C_26
REMARK   12  A    between atoms: O_13  and  C_36
REMARK   13  A    between atoms: O_15  and  C_45
REMARK   14  A    between atoms: O_15  and  C_48
REMARK   15  A    between atoms: C_19  and  C_26
REMARK   16  A    between atoms: C_24  and  C_27
REMARK   17  A    between atoms: C_29  and  C_37
REMARK   18  A    between atoms: C_35  and  C_38
REMARK   19  A    between atoms: C_37  and  C_39
REMARK   20  A    between atoms: C_42  and  C_46
REMARK   21  A    between atoms: C_42  and  C_47
REMARK                            x       y       z     vdW  Elec       q    Type
REMARK                         _______ _______ _______ _____ _____    ______ ____
ROOT
ATOM      1  O   UNL     1     -58.024 -57.484 -57.576  0.00  0.00    +0.000 OA
ATOM      2  O   UNL     1     -55.334 -56.734 -54.628  0.00  0.00    +0.000 OA
ATOM      3  C   UNL     1     -54.929 -58.055 -59.442  0.00  0.00    +0.000 A 
ATOM      4  C   UNL     1     -56.301 -57.949 -59.150  0.00  0.00    +0.000 A 
ATOM      5  C   UNL     1     -57.618 -56.826 -55.286  0.00  0.00    +0.000 A 
ATOM      6  C   UNL     1     -56.679 -57.581 -57.843  0.00  0.00    +0.000 A 
ATOM      7  C   UNL     1     -55.715 -57.338 -56.864  0.00  0.00    +0.000 A 
ATOM      8  C   UNL     1     -56.156 -56.946 -55.519  0.00  0.00    +0.000 A 
ATOM      9  C   UNL     1     -53.965 -57.851 -58.450  0.00  0.00    +0.000 A 
ATOM     10  C   UNL     1     -58.437 -57.069 -56.324  0.00  0.00    +0.000 A 
ATOM     11  C   UNL     1     -54.359 -57.479 -57.170  0.00  0.00    +0.000 A 
ENDROOT
BRANCH  10  12
ATOM     12  C   UNL     1     -59.899 -56.957 -56.212  0.00  0.00    +0.000 A 
ATOM     13  C   UNL     1     -60.530 -55.742 -56.500  0.00  0.00    +0.000 A 
ATOM     14  C   UNL     1     -60.680 -58.046 -55.807  0.00  0.00    +0.000 A 
ATOM     15  C   UNL     1     -61.919 -55.629 -56.400  0.00  0.00    +0.000 A 
ATOM     16  C   UNL     1     -62.072 -57.931 -55.710  0.00  0.00    +0.000 A 
ATOM     17  C   UNL     1     -62.698 -56.722 -56.013  0.00  0.00    +0.000 A 
BRANCH  17  18
ATOM     18  O   UNL     1     -64.042 -56.477 -55.962  0.00  0.00    +0.000 OA
ATOM     19  C   UNL     1     -64.754 -57.032 -54.864  0.00  0.00    +0.000 C 
ENDBRANCH  17  18
ENDBRANCH  10  12
BRANCH  11  20
ATOM     20  O   UNL     1     -53.359 -57.279 -56.258  0.00  0.00    +0.000 OA
ATOM     21  H   UNL     1     -53.706 -57.501 -55.365  0.00  0.00    +0.000 HD
ENDBRANCH  11  20
BRANCH   4  22
ATOM     22  C   UNL     1     -57.356 -58.183 -60.214  0.00  0.00    +0.000 C 
BRANCH  22  23
ATOM     23  C   UNL     1     -58.159 -56.942 -60.507  0.00  0.00    +0.000 C 
ATOM     24  C   UNL     1     -59.487 -56.747 -60.376  0.00  0.00    +0.000 C 
ATOM     25  C   UNL     1     -60.477 -57.767 -59.887  0.00  0.00    +0.000 C 
ATOM     26  C   UNL     1     -60.098 -55.415 -60.726  0.00  0.00    +0.000 C 
ENDBRANCH  22  23
ENDBRANCH   4  22
BRANCH   5  27
ATOM     27  O   UNL     1     -58.073 -56.398 -54.052  0.00  0.00    +0.000 OA
BRANCH  27  33
ATOM     28  O   UNL     1     -59.326 -57.958 -52.783  0.00  0.00    +0.000 OA
ATOM     29  C   UNL     1     -58.286 -55.852 -51.109  0.00  0.00    +0.000 C 
ATOM     30  C   UNL     1     -59.682 -56.447 -50.887  0.00  0.00    +0.000 C 
ATOM     31  C   UNL     1     -57.357 -56.862 -51.783  0.00  0.00    +0.000 C 
ATOM     32  C   UNL     1     -60.226 -57.000 -52.210  0.00  0.00    +0.000 C 
ATOM     33  C   UNL     1     -58.021 -57.428 -53.057  0.00  0.00    +0.000 C 
ATOM     34  C   UNL     1     -61.570 -57.695 -52.015  0.00  0.00    +0.000 C 
BRANCH  29  35
ATOM     35  O   UNL     1     -57.751 -55.464 -49.830  0.00  0.00    +0.000 OA
ATOM     36  H   UNL     1     -57.378 -54.569 -49.975  0.00  0.00    +0.000 HD
ENDBRANCH  29  35
BRANCH  30  37
ATOM     37  O   UNL     1     -60.540 -55.428 -50.359  0.00  0.00    +0.000 OA
ATOM     38  H   UNL     1     -60.582 -55.601 -49.397  0.00  0.00    +0.000 HD
ENDBRANCH  30  37
BRANCH  31  39
ATOM     39  O   UNL     1     -57.061 -57.893 -50.817  0.00  0.00    +0.000 OA
ATOM     40  H   UNL     1     -56.123 -58.134 -50.932  0.00  0.00    +0.000 HD
ENDBRANCH  31  39
ENDBRANCH  27  33
ENDBRANCH   5  27
BRANCH   3  41
ATOM     41  O   UNL     1     -54.541 -58.463 -60.693  0.00  0.00    +0.000 OA
BRANCH  41  47
ATOM     42  O   UNL     1     -54.535 -56.278 -61.602  0.00  0.00    +0.000 OA
ATOM     43  C   UNL     1     -52.623 -57.052 -63.578  0.00  0.00    +0.000 C 
ATOM     44  C   UNL     1     -53.415 -55.747 -63.691  0.00  0.00    +0.000 C 
ATOM     45  C   UNL     1     -53.380 -58.081 -62.741  0.00  0.00    +0.000 C 
ATOM     46  C   UNL     1     -53.793 -55.254 -62.287  0.00  0.00    +0.000 C 
ATOM     47  C   UNL     1     -53.767 -57.461 -61.385  0.00  0.00    +0.000 C 
BRANCH  44  48
ATOM     48  O   UNL     1     -52.627 -54.781 -64.389  0.00  0.00    +0.000 OA
ATOM     49  H   UNL     1     -51.947 -54.492 -63.745  0.00  0.00    +0.000 HD
ENDBRANCH  44  48
BRANCH  45  50
ATOM     50  O   UNL     1     -52.548 -59.243 -62.585  0.00  0.00    +0.000 OA
ATOM     51  H   UNL     1     -53.150 -59.973 -62.339  0.00  0.00    +0.000 HD
ENDBRANCH  45  50
BRANCH  43  52
ATOM     52  O   UNL     1     -52.378 -57.565 -64.897  0.00  0.00    +0.000 OA
ATOM     53  H   UNL     1     -52.828 -56.940 -65.501  0.00  0.00    +0.000 HD
ENDBRANCH  43  52
BRANCH  46  54
ATOM     54  C   UNL     1     -54.660 -53.991 -62.358  0.00  0.00    +0.000 C 
BRANCH  54  55
ATOM     55  O   UNL     1     -53.825 -52.838 -62.496  0.00  0.00    +0.000 OA
ATOM     56  H   UNL     1     -53.406 -52.688 -61.632  0.00  0.00    +0.000 HD
ENDBRANCH  54  55
ENDBRANCH  46  54
ENDBRANCH  41  47
ENDBRANCH   3  41
TORSDOF 17
ENDMDL
MODEL 7
REMARK VINA RESULT:      -5.6     24.082     30.652
REMARK  Name = 
REMARK  21 active torsions:
REMARK  status: ('A' for Active; 'I' for Inactive)
REMARK    1  A    between atoms: O_3  and  C_22
REMARK    2  A    between atoms: O_3  and  C_28
REMARK    3  A    between atoms: O_4  and  C_25
REMARK    4  A    between atoms: O_4  and  C_30
REMARK    5  A    between atoms: O_5  and  C_16
REMARK    6  A    between atoms: O_6  and  C_17
REMARK    7  A    between atoms: O_7  and  C_18
REMARK    8  A    between atoms: O_8  and  C_20
REMARK    9  A    between atoms: O_9  and  C_21
REMARK   10  A    between atoms: O_10  and  C_23
REMARK   11  A    between atoms: O_11  and  C_26
REMARK   12  A    between atoms: O_13  and  C_36
REMARK   13  A    between atoms: O_15  and  C_45
REMARK   14  A    between atoms: O_15  and  C_48
REMARK   15  A    between atoms: C_19  and  C_26
REMARK   16  A    between atoms: C_24  and  C_27
REMARK   17  A    between atoms: C_29  and  C_37
REMARK   18  A    between atoms: C_35  and  C_38
REMARK   19  A    between atoms: C_37  and  C_39
REMARK   20  A    between atoms: C_42  and  C_46
REMARK   21  A    between atoms: C_42  and  C_47
REMARK                            x       y       z     vdW  Elec       q    Type
REMARK                         _______ _______ _______ _____ _____    ______ ____
ROOT
ATOM      1  O   UNL     1     -62.501 -57.136 -47.630  0.00  0.00    +0.000 OA
ATOM      2  O   UNL     1     -65.957 -56.902 -49.749  0.00  0.00    +0.000 OA
ATOM      3  C   UNL     1     -64.896 -57.214 -44.865  0.00  0.00    +0.000 A 
ATOM      4  C   UNL     1     -63.673 -57.216 -45.561  0.00  0.00    +0.000 A 
ATOM      5  C   UNL     1     -63.579 -56.937 -49.785  0.00  0.00    +0.000 A 
ATOM      6  C   UNL     1     -63.705 -57.131 -46.968  0.00  0.00    +0.000 A 
ATOM      7  C   UNL     1     -64.920 -57.057 -47.650  0.00  0.00    +0.000 A 
ATOM      8  C   UNL     1     -64.905 -56.959 -49.115  0.00  0.00    +0.000 A 
ATOM      9  C   UNL     1     -66.113 -57.181 -45.551  0.00  0.00    +0.000 A 
ATOM     10  C   UNL     1     -62.485 -56.994 -49.005  0.00  0.00    +0.000 A 
ATOM     11  C   UNL     1     -66.122 -57.088 -46.938  0.00  0.00    +0.000 A 
ENDROOT
BRANCH  10  12
ATOM     12  C   UNL     1     -61.124 -56.957 -49.560  0.00  0.00    +0.000 A 
ATOM     13  C   UNL     1     -60.651 -55.790 -50.171  0.00  0.00    +0.000 A 
ATOM     14  C   UNL     1     -60.286 -58.078 -49.503  0.00  0.00    +0.000 A 
ATOM     15  C   UNL     1     -59.357 -55.745 -50.697  0.00  0.00    +0.000 A 
ATOM     16  C   UNL     1     -58.990 -58.030 -50.028  0.00  0.00    +0.000 A 
ATOM     17  C   UNL     1     -58.518 -56.859 -50.623  0.00  0.00    +0.000 A 
BRANCH  17  18
ATOM     18  O   UNL     1     -57.278 -56.678 -51.170  0.00  0.00    +0.000 OA
ATOM     19  C   UNL     1     -57.218 -56.501 -52.580  0.00  0.00    +0.000 C 
ENDBRANCH  17  18
ENDBRANCH  10  12
BRANCH  11  20
ATOM     20  O   UNL     1     -67.351 -57.041 -47.538  0.00  0.00    +0.000 OA
ATOM     21  H   UNL     1     -67.743 -57.942 -47.511  0.00  0.00    +0.000 HD
ENDBRANCH  11  20
BRANCH   4  22
ATOM     22  C   UNL     1     -62.347 -57.267 -44.828  0.00  0.00    +0.000 C 
BRANCH  22  23
ATOM     23  C   UNL     1     -61.917 -58.677 -44.517  0.00  0.00    +0.000 C 
ATOM     24  C   UNL     1     -61.684 -59.241 -43.315  0.00  0.00    +0.000 C 
ATOM     25  C   UNL     1     -61.815 -58.553 -41.984  0.00  0.00    +0.000 C 
ATOM     26  C   UNL     1     -61.260 -60.683 -43.221  0.00  0.00    +0.000 C 
ENDBRANCH  22  23
ENDBRANCH   4  22
BRANCH   5  27
ATOM     27  O   UNL     1     -63.517 -56.782 -51.158  0.00  0.00    +0.000 OA
BRANCH  27  33
ATOM     28  O   UNL     1     -62.342 -58.494 -52.298  0.00  0.00    +0.000 OA
ATOM     29  C   UNL     1     -63.975 -56.965 -54.118  0.00  0.00    +0.000 C 
ATOM     30  C   UNL     1     -62.583 -57.474 -54.513  0.00  0.00    +0.000 C 
ATOM     31  C   UNL     1     -64.602 -57.852 -53.043  0.00  0.00    +0.000 C 
ATOM     32  C   UNL     1     -61.715 -57.634 -53.259  0.00  0.00    +0.000 C 
ATOM     33  C   UNL     1     -63.626 -58.026 -51.860  0.00  0.00    +0.000 C 
ATOM     34  C   UNL     1     -60.355 -58.239 -53.594  0.00  0.00    +0.000 C 
BRANCH  29  35
ATOM     35  O   UNL     1     -64.803 -56.952 -55.295  0.00  0.00    +0.000 OA
ATOM     36  H   UNL     1     -64.649 -57.822 -55.720  0.00  0.00    +0.000 HD
ENDBRANCH  29  35
BRANCH  30  37
ATOM     37  O   UNL     1     -61.997 -56.548 -55.435  0.00  0.00    +0.000 OA
ATOM     38  H   UNL     1     -61.229 -57.019 -55.818  0.00  0.00    +0.000 HD
ENDBRANCH  30  37
BRANCH  31  39
ATOM     39  O   UNL     1     -64.942 -59.111 -53.661  0.00  0.00    +0.000 OA
ATOM     40  H   UNL     1     -64.531 -59.116 -54.546  0.00  0.00    +0.000 HD
ENDBRANCH  31  39
ENDBRANCH  27  33
ENDBRANCH   5  27
BRANCH   3  41
ATOM     41  O   UNL     1     -64.889 -57.350 -43.500  0.00  0.00    +0.000 OA
BRANCH  41  47
ATOM     42  O   UNL     1     -65.944 -55.705 -42.165  0.00  0.00    +0.000 OA
ATOM     43  C   UNL     1     -67.813 -57.629 -41.185  0.00  0.00    +0.000 C 
ATOM     44  C   UNL     1     -67.633 -56.266 -40.512  0.00  0.00    +0.000 C 
ATOM     45  C   UNL     1     -66.547 -58.043 -41.933  0.00  0.00    +0.000 C 
ATOM     46  C   UNL     1     -67.160 -55.241 -41.553  0.00  0.00    +0.000 C 
ATOM     47  C   UNL     1     -66.126 -56.917 -42.896  0.00  0.00    +0.000 C 
BRANCH  44  48
ATOM     48  O   UNL     1     -68.871 -55.872 -39.917  0.00  0.00    +0.000 OA
ATOM     49  H   UNL     1     -68.758 -54.924 -39.694  0.00  0.00    +0.000 HD
ENDBRANCH  44  48
BRANCH  45  50
ATOM     50  O   UNL     1     -66.809 -59.275 -42.624  0.00  0.00    +0.000 OA
ATOM     51  H   UNL     1     -67.120 -59.904 -41.943  0.00  0.00    +0.000 HD
ENDBRANCH  45  50
BRANCH  43  52
ATOM     52  O   UNL     1     -68.141 -58.604 -40.182  0.00  0.00    +0.000 OA
ATOM     53  H   UNL     1     -68.997 -58.310 -39.810  0.00  0.00    +0.000 HD
ENDBRANCH  43  52
BRANCH  46  54
ATOM     54  C   UNL     1     -66.887 -53.878 -40.903  0.00  0.00    +0.000 C 
BRANCH  54  55
ATOM     55  O   UNL     1     -66.495 -54.062 -39.541  0.00  0.00    +0.000 OA
ATOM     56  H   UNL     1     -65.524 -54.096 -39.529  0.00  0.00    +0.000 HD
ENDBRANCH  54  55
ENDBRANCH  46  54
ENDBRANCH  41  47
ENDBRANCH   3  41
TORSDOF 17
ENDMDL
MODEL 8
REMARK VINA RESULT:      -5.5     32.977     38.998
REMARK  Name = 
REMARK  21 active torsions:
REMARK  status: ('A' for Active; 'I' for Inactive)
REMARK    1  A    between atoms: O_3  and  C_22
REMARK    2  A    between atoms: O_3  and  C_28
REMARK    3  A    between atoms: O_4  and  C_25
REMARK    4  A    between atoms: O_4  and  C_30
REMARK    5  A    between atoms: O_5  and  C_16
REMARK    6  A    between atoms: O_6  and  C_17
REMARK    7  A    between atoms: O_7  and  C_18
REMARK    8  A    between atoms: O_8  and  C_20
REMARK    9  A    between atoms: O_9  and  C_21
REMARK   10  A    between atoms: O_10  and  C_23
REMARK   11  A    between atoms: O_11  and  C_26
REMARK   12  A    between atoms: O_13  and  C_36
REMARK   13  A    between atoms: O_15  and  C_45
REMARK   14  A    between atoms: O_15  and  C_48
REMARK   15  A    between atoms: C_19  and  C_26
REMARK   16  A    between atoms: C_24  and  C_27
REMARK   17  A    between atoms: C_29  and  C_37
REMARK   18  A    between atoms: C_35  and  C_38
REMARK   19  A    between atoms: C_37  and  C_39
REMARK   20  A    between atoms: C_42  and  C_46
REMARK   21  A    between atoms: C_42  and  C_47
REMARK                            x       y       z     vdW  Elec       q    Type
REMARK                         _______ _______ _______ _____ _____    ______ ____
ROOT
ATOM      1  O   UNL     1     -68.524 -57.345 -36.881  0.00  0.00    +0.000 OA
ATOM      2  O   UNL     1     -68.796 -61.342 -37.539  0.00  0.00    +0.000 OA
ATOM      3  C   UNL     1     -67.348 -57.455 -40.345  0.00  0.00    +0.000 A 
ATOM      4  C   UNL     1     -67.719 -56.949 -39.086  0.00  0.00    +0.000 A 
ATOM      5  C   UNL     1     -69.052 -59.538 -36.012  0.00  0.00    +0.000 A 
ATOM      6  C   UNL     1     -68.165 -57.858 -38.105  0.00  0.00    +0.000 A 
ATOM      7  C   UNL     1     -68.245 -59.223 -38.383  0.00  0.00    +0.000 A 
ATOM      8  C   UNL     1     -68.704 -60.135 -37.327  0.00  0.00    +0.000 A 
ATOM      9  C   UNL     1     -67.467 -58.817 -40.635  0.00  0.00    +0.000 A 
ATOM     10  C   UNL     1     -68.910 -58.208 -35.873  0.00  0.00    +0.000 A 
ATOM     11  C   UNL     1     -67.900 -59.698 -39.651  0.00  0.00    +0.000 A 
ENDROOT
BRANCH  10  12
ATOM     12  C   UNL     1     -69.204 -57.516 -34.609  0.00  0.00    +0.000 A 
ATOM     13  C   UNL     1     -68.437 -57.786 -33.470  0.00  0.00    +0.000 A 
ATOM     14  C   UNL     1     -70.252 -56.592 -34.516  0.00  0.00    +0.000 A 
ATOM     15  C   UNL     1     -68.708 -57.130 -32.267  0.00  0.00    +0.000 A 
ATOM     16  C   UNL     1     -70.519 -55.933 -33.310  0.00  0.00    +0.000 A 
ATOM     17  C   UNL     1     -69.743 -56.196 -32.181  0.00  0.00    +0.000 A 
BRANCH  17  18
ATOM     18  O   UNL     1     -69.895 -55.624 -30.949  0.00  0.00    +0.000 OA
ATOM     19  C   UNL     1     -70.637 -56.361 -29.986  0.00  0.00    +0.000 C 
ENDBRANCH  17  18
ENDBRANCH  10  12
BRANCH  11  20
ATOM     20  O   UNL     1     -67.972 -61.019 -40.003  0.00  0.00    +0.000 OA
ATOM     21  H   UNL     1     -68.911 -61.235 -40.199  0.00  0.00    +0.000 HD
ENDBRANCH  11  20
BRANCH   4  22
ATOM     22  C   UNL     1     -67.609 -55.471 -38.764  0.00  0.00    +0.000 C 
BRANCH  22  23
ATOM     23  C   UNL     1     -68.894 -54.729 -39.028  0.00  0.00    +0.000 C 
ATOM     24  C   UNL     1     -69.220 -53.960 -40.086  0.00  0.00    +0.000 C 
ATOM     25  C   UNL     1     -68.337 -53.678 -41.269  0.00  0.00    +0.000 C 
ATOM     26  C   UNL     1     -70.574 -53.302 -40.158  0.00  0.00    +0.000 C 
ENDBRANCH  22  23
ENDBRANCH   4  22
BRANCH   5  27
ATOM     27  O   UNL     1     -69.428 -60.367 -34.971  0.00  0.00    +0.000 OA
BRANCH  27  33
ATOM     28  O   UNL     1     -71.520 -59.898 -33.962  0.00  0.00    +0.000 OA
ATOM     29  C   UNL     1     -70.658 -62.584 -33.365  0.00  0.00    +0.000 C 
ATOM     30  C   UNL     1     -71.375 -61.714 -32.324  0.00  0.00    +0.000 C 
ATOM     31  C   UNL     1     -71.038 -62.170 -34.786  0.00  0.00    +0.000 C 
ATOM     32  C   UNL     1     -71.123 -60.232 -32.625  0.00  0.00    +0.000 C 
ATOM     33  C   UNL     1     -70.833 -60.652 -34.971  0.00  0.00    +0.000 C 
ATOM     34  C   UNL     1     -71.905 -59.329 -31.677  0.00  0.00    +0.000 C 
BRANCH  29  35
ATOM     35  O   UNL     1     -71.021 -63.958 -33.134  0.00  0.00    +0.000 OA
ATOM     36  H   UNL     1     -71.962 -64.017 -33.403  0.00  0.00    +0.000 HD
ENDBRANCH  29  35
BRANCH  30  37
ATOM     37  O   UNL     1     -70.899 -62.067 -31.020  0.00  0.00    +0.000 OA
ATOM     38  H   UNL     1     -71.113 -63.017 -30.917  0.00  0.00    +0.000 HD
ENDBRANCH  30  37
BRANCH  31  39
ATOM     39  O   UNL     1     -72.408 -62.567 -35.003  0.00  0.00    +0.000 OA
ATOM     40  H   UNL     1     -72.819 -62.674 -34.125  0.00  0.00    +0.000 HD
ENDBRANCH  31  39
ENDBRANCH  27  33
ENDBRANCH   5  27
BRANCH   3  41
ATOM     41  O   UNL     1     -66.963 -56.581 -41.330  0.00  0.00    +0.000 OA
BRANCH  41  47
ATOM     42  O   UNL     1     -64.795 -56.726 -42.268  0.00  0.00    +0.000 OA
ATOM     43  C   UNL     1     -65.891 -57.397 -44.819  0.00  0.00    +0.000 C 
ATOM     44  C   UNL     1     -64.431 -56.964 -44.658  0.00  0.00    +0.000 C 
ATOM     45  C   UNL     1     -66.756 -56.837 -43.691  0.00  0.00    +0.000 C 
ATOM     46  C   UNL     1     -63.940 -57.335 -43.251  0.00  0.00    +0.000 C 
ATOM     47  C   UNL     1     -66.136 -57.210 -42.332  0.00  0.00    +0.000 C 
BRANCH  44  48
ATOM     48  O   UNL     1     -63.643 -57.594 -45.669  0.00  0.00    +0.000 OA
ATOM     49  H   UNL     1     -64.086 -57.373 -46.514  0.00  0.00    +0.000 HD
ENDBRANCH  44  48
BRANCH  45  50
ATOM     50  O   UNL     1     -68.087 -57.357 -43.838  0.00  0.00    +0.000 OA
ATOM     51  H   UNL     1     -68.250 -57.408 -44.801  0.00  0.00    +0.000 HD
ENDBRANCH  45  50
BRANCH  43  52
ATOM     52  O   UNL     1     -66.375 -56.940 -46.092  0.00  0.00    +0.000 OA
ATOM     53  H   UNL     1     -65.610 -57.019 -46.699  0.00  0.00    +0.000 HD
ENDBRANCH  43  52
BRANCH  46  54
ATOM     54  C   UNL     1     -62.505 -56.844 -43.018  0.00  0.00    +0.000 C 
BRANCH  54  55
ATOM     55  O   UNL     1     -62.239 -55.715 -43.854  0.00  0.00    +0.000 OA
ATOM     56  H   UNL     1     -61.793 -56.052 -44.650  0.00  0.00    +0.000 HD
ENDBRANCH  54  55
ENDBRANCH  46  54
ENDBRANCH  41  47
ENDBRANCH   3  41
TORSDOF 17
ENDMDL
MODEL 9
REMARK VINA RESULT:      -5.4      1.926      9.493
REMARK  Name = 
REMARK  21 active torsions:
REMARK  status: ('A' for Active; 'I' for Inactive)
REMARK    1  A    between atoms: O_3  and  C_22
REMARK    2  A    between atoms: O_3  and  C_28
REMARK    3  A    between atoms: O_4  and  C_25
REMARK    4  A    between atoms: O_4  and  C_30
REMARK    5  A    between atoms: O_5  and  C_16
REMARK    6  A    between atoms: O_6  and  C_17
REMARK    7  A    between atoms: O_7  and  C_18
REMARK    8  A    between atoms: O_8  and  C_20
REMARK    9  A    between atoms: O_9  and  C_21
REMARK   10  A    between atoms: O_10  and  C_23
REMARK   11  A    between atoms: O_11  and  C_26
REMARK   12  A    between atoms: O_13  and  C_36
REMARK   13  A    between atoms: O_15  and  C_45
REMARK   14  A    between atoms: O_15  and  C_48
REMARK   15  A    between atoms: C_19  and  C_26
REMARK   16  A    between atoms: C_24  and  C_27
REMARK   17  A    between atoms: C_29  and  C_37
REMARK   18  A    between atoms: C_35  and  C_38
REMARK   19  A    between atoms: C_37  and  C_39
REMARK   20  A    between atoms: C_42  and  C_46
REMARK   21  A    between atoms: C_42  and  C_47
REMARK                            x       y       z     vdW  Elec       q    Type
REMARK                         _______ _______ _______ _____ _____    ______ ____
ROOT
ATOM      1  O   UNL     1     -64.715 -58.897 -78.737  0.00  0.00    +0.000 OA
ATOM      2  O   UNL     1     -67.645 -56.090 -78.581  0.00  0.00    +0.000 OA
ATOM      3  C   UNL     1     -66.969 -60.528 -76.361  0.00  0.00    +0.000 A 
ATOM      4  C   UNL     1     -65.857 -60.301 -77.191  0.00  0.00    +0.000 A 
ATOM      5  C   UNL     1     -65.532 -56.739 -79.459  0.00  0.00    +0.000 A 
ATOM      6  C   UNL     1     -65.809 -59.101 -77.931  0.00  0.00    +0.000 A 
ATOM      7  C   UNL     1     -66.845 -58.170 -77.845  0.00  0.00    +0.000 A 
ATOM      8  C   UNL     1     -66.746 -56.929 -78.624  0.00  0.00    +0.000 A 
ATOM      9  C   UNL     1     -68.025 -59.613 -76.307  0.00  0.00    +0.000 A 
ATOM     10  C   UNL     1     -64.600 -57.708 -79.433  0.00  0.00    +0.000 A 
ATOM     11  C   UNL     1     -67.954 -58.432 -77.037  0.00  0.00    +0.000 A 
ENDROOT
BRANCH  10  12
ATOM     12  C   UNL     1     -63.350 -57.614 -80.202  0.00  0.00    +0.000 A 
ATOM     13  C   UNL     1     -63.121 -58.488 -81.271  0.00  0.00    +0.000 A 
ATOM     14  C   UNL     1     -62.369 -56.669 -79.878  0.00  0.00    +0.000 A 
ATOM     15  C   UNL     1     -61.939 -58.403 -82.009  0.00  0.00    +0.000 A 
ATOM     16  C   UNL     1     -61.186 -56.584 -80.622  0.00  0.00    +0.000 A 
ATOM     17  C   UNL     1     -60.969 -57.448 -81.695  0.00  0.00    +0.000 A 
BRANCH  17  18
ATOM     18  O   UNL     1     -59.864 -57.469 -82.501  0.00  0.00    +0.000 OA
ATOM     19  C   UNL     1     -58.603 -57.600 -81.857  0.00  0.00    +0.000 C 
ENDBRANCH  17  18
ENDBRANCH  10  12
BRANCH  11  20
ATOM     20  O   UNL     1     -69.016 -57.577 -76.919  0.00  0.00    +0.000 OA
ATOM     21  H   UNL     1     -68.701 -56.666 -77.111  0.00  0.00    +0.000 HD
ENDBRANCH  11  20
BRANCH   4  22
ATOM     22  C   UNL     1     -64.713 -61.293 -77.270  0.00  0.00    +0.000 C 
BRANCH  22  23
ATOM     23  C   UNL     1     -64.570 -61.897 -78.642  0.00  0.00    +0.000 C 
ATOM     24  C   UNL     1     -63.488 -61.917 -79.446  0.00  0.00    +0.000 C 
ATOM     25  C   UNL     1     -62.146 -61.322 -79.123  0.00  0.00    +0.000 C 
ATOM     26  C   UNL     1     -63.556 -62.583 -80.795  0.00  0.00    +0.000 C 
ENDBRANCH  22  23
ENDBRANCH   4  22
BRANCH   5  27
ATOM     27  O   UNL     1     -65.370 -55.558 -80.159  0.00  0.00    +0.000 OA
BRANCH  27  33
ATOM     28  O   UNL     1     -65.115 -55.845 -82.496  0.00  0.00    +0.000 OA
ATOM     29  C   UNL     1     -65.740 -53.106 -81.849  0.00  0.00    +0.000 C 
ATOM     30  C   UNL     1     -64.749 -53.468 -82.961  0.00  0.00    +0.000 C 
ATOM     31  C   UNL     1     -66.759 -54.225 -81.632  0.00  0.00    +0.000 C 
ATOM     32  C   UNL     1     -64.114 -54.832 -82.666  0.00  0.00    +0.000 C 
ATOM     33  C   UNL     1     -66.034 -55.572 -81.429  0.00  0.00    +0.000 C 
ATOM     34  C   UNL     1     -63.199 -55.280 -83.801  0.00  0.00    +0.000 C 
BRANCH  29  35
ATOM     35  O   UNL     1     -66.413 -51.889 -82.220  0.00  0.00    +0.000 OA
ATOM     36  H   UNL     1     -65.702 -51.217 -82.281  0.00  0.00    +0.000 HD
ENDBRANCH  29  35
BRANCH  30  37
ATOM     37  O   UNL     1     -63.754 -52.440 -83.045  0.00  0.00    +0.000 OA
ATOM     38  H   UNL     1     -63.483 -52.422 -83.986  0.00  0.00    +0.000 HD
ENDBRANCH  30  37
BRANCH  31  39
ATOM     39  O   UNL     1     -67.635 -54.243 -82.778  0.00  0.00    +0.000 OA
ATOM     40  H   UNL     1     -68.168 -55.058 -82.720  0.00  0.00    +0.000 HD
ENDBRANCH  31  39
ENDBRANCH  27  33
ENDBRANCH   5  27
BRANCH   3  41
ATOM     41  O   UNL     1     -67.061 -61.712 -75.674  0.00  0.00    +0.000 OA
BRANCH  41  47
ATOM     42  O   UNL     1     -67.677 -60.251 -73.918  0.00  0.00    +0.000 OA
ATOM     43  C   UNL     1     -65.604 -61.298 -72.255  0.00  0.00    +0.000 C 
ATOM     44  C   UNL     1     -66.327 -59.991 -71.915  0.00  0.00    +0.000 C 
ATOM     45  C   UNL     1     -65.652 -61.576 -73.756  0.00  0.00    +0.000 C 
ATOM     46  C   UNL     1     -67.746 -60.026 -72.499  0.00  0.00    +0.000 C 
ATOM     47  C   UNL     1     -67.111 -61.519 -74.245  0.00  0.00    +0.000 C 
BRANCH  44  48
ATOM     48  O   UNL     1     -66.350 -59.826 -70.496  0.00  0.00    +0.000 OA
ATOM     49  H   UNL     1     -65.906 -60.622 -70.138  0.00  0.00    +0.000 HD
ENDBRANCH  44  48
BRANCH  45  50
ATOM     50  O   UNL     1     -65.050 -62.858 -74.001  0.00  0.00    +0.000 OA
ATOM     51  H   UNL     1     -65.299 -63.420 -73.240  0.00  0.00    +0.000 HD
ENDBRANCH  45  50
BRANCH  43  52
ATOM     52  O   UNL     1     -64.242 -61.206 -71.807  0.00  0.00    +0.000 OA
ATOM     53  H   UNL     1     -64.159 -61.880 -71.103  0.00  0.00    +0.000 HD
ENDBRANCH  43  52
BRANCH  46  54
ATOM     54  C   UNL     1     -68.479 -58.700 -72.253  0.00  0.00    +0.000 C 
BRANCH  54  55
ATOM     55  O   UNL     1     -69.116 -58.731 -70.974  0.00  0.00    +0.000 OA
ATOM     56  H   UNL     1     -68.409 -58.756 -70.307  0.00  0.00    +0.000 HD
ENDBRANCH  54  55
ENDBRANCH  46  54
ENDBRANCH  41  47
ENDBRANCH   3  41
TORSDOF 17
ENDMDL
