MODEL 1
REMARK VINA RESULT:      -5.7      0.000      0.000
REMARK  Name = 
REMARK  6 active torsions:
REMARK  status: ('A' for Active; 'I' for Inactive)
REMARK    1  A    between atoms: O_3  and  C_16
REMARK    2  A    between atoms: O_4  and  C_17
REMARK    3  A    between atoms: O_4  and  C_22
REMARK    4  A    between atoms: O_5  and  C_19
REMARK    5  A    between atoms: O_5  and  C_23
REMARK    6  A    between atoms: O_6  and  C_21
REMARK                            x       y       z     vdW  Elec       q    Type
REMARK                         _______ _______ _______ _____ _____    ______ ____
ROOT
ATOM      1  O   UNL     1     -63.413 -45.920 -56.046  0.00  0.00    +0.000 OA
ATOM      2  O   UNL     1     -66.535 -48.327 -56.255  0.00  0.00    +0.000 OA
ATOM      3  C   UNL     1     -65.719 -46.064 -56.755  0.00  0.00    +0.000 C 
ATOM      4  C   UNL     1     -64.763 -46.127 -55.559  0.00  0.00    +0.000 C 
ATOM      5  C   UNL     1     -64.768 -46.398 -57.852  0.00  0.00    +0.000 A 
ATOM      6  C   UNL     1     -66.907 -46.983 -56.557  0.00  0.00    +0.000 C 
ATOM      7  C   UNL     1     -64.835 -47.425 -54.783  0.00  0.00    +0.000 A 
ATOM      8  C   UNL     1     -63.473 -46.258 -57.375  0.00  0.00    +0.000 A 
ATOM      9  C   UNL     1     -65.699 -48.460 -55.177  0.00  0.00    +0.000 A 
ATOM     10  C   UNL     1     -65.005 -46.732 -59.175  0.00  0.00    +0.000 A 
ATOM     11  C   UNL     1     -64.016 -47.596 -53.652  0.00  0.00    +0.000 A 
ATOM     12  C   UNL     1     -62.384 -46.442 -58.203  0.00  0.00    +0.000 A 
ATOM     13  C   UNL     1     -65.702 -49.672 -54.472  0.00  0.00    +0.000 A 
ATOM     14  C   UNL     1     -63.907 -46.936 -60.023  0.00  0.00    +0.000 A 
ATOM     15  C   UNL     1     -62.594 -46.791 -59.544  0.00  0.00    +0.000 A 
ATOM     16  C   UNL     1     -64.058 -48.779 -52.919  0.00  0.00    +0.000 A 
ATOM     17  C   UNL     1     -64.902 -49.799 -53.331  0.00  0.00    +0.000 A 
ENDROOT
BRANCH  12  18
ATOM     18  O   UNL     1     -61.115 -46.291 -57.720  0.00  0.00    +0.000 OA
ATOM     19  H   UNL     1     -61.151 -46.623 -56.804  0.00  0.00    +0.000 HD
ENDBRANCH  12  18
BRANCH  13  20
ATOM     20  O   UNL     1     -66.481 -50.770 -54.752  0.00  0.00    +0.000 OA
ATOM     21  C   UNL     1     -67.825 -50.675 -54.284  0.00  0.00    +0.000 C 
ENDBRANCH  13  20
BRANCH  15  22
ATOM     22  O   UNL     1     -61.447 -46.958 -60.281  0.00  0.00    +0.000 OA
ATOM     23  C   UNL     1     -61.066 -45.878 -61.124  0.00  0.00    +0.000 C 
ENDBRANCH  15  22
BRANCH  17  24
ATOM     24  O   UNL     1     -64.928 -50.954 -52.596  0.00  0.00    +0.000 OA
ATOM     25  H   UNL     1     -64.626 -50.691 -51.706  0.00  0.00    +0.000 HD
ENDBRANCH  17  24
TORSDOF 4
ENDMDL
MODEL 2
REMARK VINA RESULT:      -5.7      1.234      6.425
REMARK  Name = 
REMARK  6 active torsions:
REMARK  status: ('A' for Active; 'I' for Inactive)
REMARK    1  A    between atoms: O_3  and  C_16
REMARK    2  A    between atoms: O_4  and  C_17
REMARK    3  A    between atoms: O_4  and  C_22
REMARK    4  A    between atoms: O_5  and  C_19
REMARK    5  A    between atoms: O_5  and  C_23
REMARK    6  A    between atoms: O_6  and  C_21
REMARK                            x       y       z     vdW  Elec       q    Type
REMARK                         _______ _______ _______ _____ _____    ______ ____
ROOT
ATOM      1  O   UNL     1     -66.544 -47.429 -57.570  0.00  0.00    +0.000 OA
ATOM      2  O   UNL     1     -63.205 -45.619 -56.493  0.00  0.00    +0.000 OA
ATOM      3  C   UNL     1     -65.649 -45.617 -56.243  0.00  0.00    +0.000 C 
ATOM      4  C   UNL     1     -65.810 -46.181 -57.659  0.00  0.00    +0.000 C 
ATOM      5  C   UNL     1     -65.802 -46.872 -55.456  0.00  0.00    +0.000 A 
ATOM      6  C   UNL     1     -64.346 -44.858 -56.099  0.00  0.00    +0.000 C 
ATOM      7  C   UNL     1     -64.500 -46.407 -58.382  0.00  0.00    +0.000 A 
ATOM      8  C   UNL     1     -66.351 -47.847 -56.277  0.00  0.00    +0.000 A 
ATOM      9  C   UNL     1     -63.270 -46.132 -57.761  0.00  0.00    +0.000 A 
ATOM     10  C   UNL     1     -65.548 -47.131 -54.120  0.00  0.00    +0.000 A 
ATOM     11  C   UNL     1     -64.518 -46.907 -59.697  0.00  0.00    +0.000 A 
ATOM     12  C   UNL     1     -66.664 -49.099 -55.787  0.00  0.00    +0.000 A 
ATOM     13  C   UNL     1     -62.072 -46.405 -58.436  0.00  0.00    +0.000 A 
ATOM     14  C   UNL     1     -65.848 -48.404 -53.613  0.00  0.00    +0.000 A 
ATOM     15  C   UNL     1     -66.407 -49.392 -54.441  0.00  0.00    +0.000 A 
ATOM     16  C   UNL     1     -63.329 -47.126 -60.388  0.00  0.00    +0.000 A 
ATOM     17  C   UNL     1     -62.123 -46.868 -59.756  0.00  0.00    +0.000 A 
ENDROOT
BRANCH  12  18
ATOM     18  O   UNL     1     -67.213 -50.045 -56.607  0.00  0.00    +0.000 OA
ATOM     19  H   UNL     1     -67.224 -49.638 -57.492  0.00  0.00    +0.000 HD
ENDBRANCH  12  18
BRANCH  13  20
ATOM     20  O   UNL     1     -60.803 -46.201 -57.948  0.00  0.00    +0.000 OA
ATOM     21  C   UNL     1     -60.362 -44.846 -58.001  0.00  0.00    +0.000 C 
ENDBRANCH  13  20
BRANCH  15  22
ATOM     22  O   UNL     1     -66.748 -50.665 -54.055  0.00  0.00    +0.000 OA
ATOM     23  C   UNL     1     -65.711 -51.462 -53.493  0.00  0.00    +0.000 C 
ENDBRANCH  15  22
BRANCH  17  24
ATOM     24  O   UNL     1     -60.966 -47.092 -60.453  0.00  0.00    +0.000 OA
ATOM     25  H   UNL     1     -60.567 -46.208 -60.565  0.00  0.00    +0.000 HD
ENDBRANCH  17  24
TORSDOF 4
ENDMDL
MODEL 3
REMARK VINA RESULT:      -5.5     37.026     41.066
REMARK  Name = 
REMARK  6 active torsions:
REMARK  status: ('A' for Active; 'I' for Inactive)
REMARK    1  A    between atoms: O_3  and  C_16
REMARK    2  A    between atoms: O_4  and  C_17
REMARK    3  A    between atoms: O_4  and  C_22
REMARK    4  A    between atoms: O_5  and  C_19
REMARK    5  A    between atoms: O_5  and  C_23
REMARK    6  A    between atoms: O_6  and  C_21
REMARK                            x       y       z     vdW  Elec       q    Type
REMARK                         _______ _______ _______ _____ _____    ______ ____
ROOT
ATOM      1  O   UNL     1     -64.256 -56.985 -14.882  0.00  0.00    +0.000 OA
ATOM      2  O   UNL     1     -62.267 -55.511 -17.957  0.00  0.00    +0.000 OA
ATOM      3  C   UNL     1     -62.041 -56.514 -15.726  0.00  0.00    +0.000 C 
ATOM      4  C   UNL     1     -63.381 -55.907 -15.299  0.00  0.00    +0.000 C 
ATOM      5  C   UNL     1     -62.486 -57.898 -16.049  0.00  0.00    +0.000 A 
ATOM      6  C   UNL     1     -61.403 -55.709 -16.839  0.00  0.00    +0.000 C 
ATOM      7  C   UNL     1     -64.055 -55.087 -16.378  0.00  0.00    +0.000 A 
ATOM      8  C   UNL     1     -63.745 -58.099 -15.502  0.00  0.00    +0.000 A 
ATOM      9  C   UNL     1     -63.476 -54.945 -17.651  0.00  0.00    +0.000 A 
ATOM     10  C   UNL     1     -61.827 -58.924 -16.706  0.00  0.00    +0.000 A 
ATOM     11  C   UNL     1     -65.285 -54.463 -16.101  0.00  0.00    +0.000 A 
ATOM     12  C   UNL     1     -64.376 -59.323 -15.592  0.00  0.00    +0.000 A 
ATOM     13  C   UNL     1     -64.152 -54.226 -18.647  0.00  0.00    +0.000 A 
ATOM     14  C   UNL     1     -62.463 -60.169 -16.817  0.00  0.00    +0.000 A 
ATOM     15  C   UNL     1     -63.737 -60.375 -16.261  0.00  0.00    +0.000 A 
ATOM     16  C   UNL     1     -65.930 -53.704 -17.073  0.00  0.00    +0.000 A 
ATOM     17  C   UNL     1     -65.357 -53.588 -18.329  0.00  0.00    +0.000 A 
ENDROOT
BRANCH  12  18
ATOM     18  O   UNL     1     -65.613 -59.506 -15.040  0.00  0.00    +0.000 OA
ATOM     19  H   UNL     1     -66.224 -59.560 -15.799  0.00  0.00    +0.000 HD
ENDBRANCH  12  18
BRANCH  13  20
ATOM     20  O   UNL     1     -63.715 -54.019 -19.934  0.00  0.00    +0.000 OA
ATOM     21  C   UNL     1     -62.790 -52.942 -20.076  0.00  0.00    +0.000 C 
ENDBRANCH  13  20
BRANCH  15  22
ATOM     22  O   UNL     1     -64.450 -61.548 -16.302  0.00  0.00    +0.000 OA
ATOM     23  C   UNL     1     -63.958 -62.624 -15.510  0.00  0.00    +0.000 C 
ENDBRANCH  15  22
BRANCH  17  24
ATOM     24  O   UNL     1     -66.008 -52.837 -19.272  0.00  0.00    +0.000 OA
ATOM     25  H   UNL     1     -66.675 -53.438 -19.652  0.00  0.00    +0.000 HD
ENDBRANCH  17  24
TORSDOF 4
ENDMDL
MODEL 4
REMARK VINA RESULT:      -5.2     19.127     20.978
REMARK  Name = 
REMARK  6 active torsions:
REMARK  status: ('A' for Active; 'I' for Inactive)
REMARK    1  A    between atoms: O_3  and  C_16
REMARK    2  A    between atoms: O_4  and  C_17
REMARK    3  A    between atoms: O_4  and  C_22
REMARK    4  A    between atoms: O_5  and  C_19
REMARK    5  A    between atoms: O_5  and  C_23
REMARK    6  A    between atoms: O_6  and  C_21
REMARK                            x       y       z     vdW  Elec       q    Type
REMARK                         _______ _______ _______ _____ _____    ______ ____
ROOT
ATOM      1  O   UNL     1     -62.213 -64.459 -71.146  0.00  0.00    +0.000 OA
ATOM      2  O   UNL     1     -64.809 -63.210 -68.446  0.00  0.00    +0.000 OA
ATOM      3  C   UNL     1     -63.595 -65.170 -69.295  0.00  0.00    +0.000 C 
ATOM      4  C   UNL     1     -63.590 -64.576 -70.707  0.00  0.00    +0.000 C 
ATOM      5  C   UNL     1     -62.220 -64.796 -68.862  0.00  0.00    +0.000 A 
ATOM      6  C   UNL     1     -64.753 -64.635 -68.478  0.00  0.00    +0.000 C 
ATOM      7  C   UNL     1     -64.277 -63.232 -70.810  0.00  0.00    +0.000 A 
ATOM      8  C   UNL     1     -61.485 -64.435 -69.982  0.00  0.00    +0.000 A 
ATOM      9  C   UNL     1     -64.834 -62.612 -69.678  0.00  0.00    +0.000 A 
ATOM     10  C   UNL     1     -61.633 -64.828 -67.609  0.00  0.00    +0.000 A 
ATOM     11  C   UNL     1     -64.353 -62.591 -72.060  0.00  0.00    +0.000 A 
ATOM     12  C   UNL     1     -60.149 -64.103 -69.882  0.00  0.00    +0.000 A 
ATOM     13  C   UNL     1     -65.414 -61.340 -69.795  0.00  0.00    +0.000 A 
ATOM     14  C   UNL     1     -60.280 -64.479 -67.491  0.00  0.00    +0.000 A 
ATOM     15  C   UNL     1     -59.532 -64.117 -68.624  0.00  0.00    +0.000 A 
ATOM     16  C   UNL     1     -64.977 -61.354 -72.187  0.00  0.00    +0.000 A 
ATOM     17  C   UNL     1     -65.505 -60.746 -71.058  0.00  0.00    +0.000 A 
ENDROOT
BRANCH  12  18
ATOM     18  O   UNL     1     -59.436 -63.759 -70.997  0.00  0.00    +0.000 OA
ATOM     19  H   UNL     1     -58.656 -64.343 -70.990  0.00  0.00    +0.000 HD
ENDBRANCH  12  18
BRANCH  13  20
ATOM     20  O   UNL     1     -65.981 -60.612 -68.775  0.00  0.00    +0.000 OA
ATOM     21  C   UNL     1     -67.302 -61.019 -68.424  0.00  0.00    +0.000 C 
ENDBRANCH  13  20
BRANCH  15  22
ATOM     22  O   UNL     1     -58.204 -63.764 -68.631  0.00  0.00    +0.000 OA
ATOM     23  C   UNL     1     -57.782 -62.840 -67.634  0.00  0.00    +0.000 C 
ENDBRANCH  15  22
BRANCH  17  24
ATOM     24  O   UNL     1     -66.115 -59.528 -71.204  0.00  0.00    +0.000 OA
ATOM     25  H   UNL     1     -65.400 -58.922 -71.479  0.00  0.00    +0.000 HD
ENDBRANCH  17  24
TORSDOF 4
ENDMDL
MODEL 5
REMARK VINA RESULT:      -5.0     20.637     23.005
REMARK  Name = 
REMARK  6 active torsions:
REMARK  status: ('A' for Active; 'I' for Inactive)
REMARK    1  A    between atoms: O_3  and  C_16
REMARK    2  A    between atoms: O_4  and  C_17
REMARK    3  A    between atoms: O_4  and  C_22
REMARK    4  A    between atoms: O_5  and  C_19
REMARK    5  A    between atoms: O_5  and  C_23
REMARK    6  A    between atoms: O_6  and  C_21
REMARK                            x       y       z     vdW  Elec       q    Type
REMARK                         _______ _______ _______ _____ _____    ______ ____
ROOT
ATOM      1  O   UNL     1     -67.304 -60.223 -77.429  0.00  0.00    +0.000 OA
ATOM      2  O   UNL     1     -65.488 -60.712 -73.958  0.00  0.00    +0.000 OA
ATOM      3  C   UNL     1     -65.812 -61.671 -76.196  0.00  0.00    +0.000 C 
ATOM      4  C   UNL     1     -67.225 -61.081 -76.263  0.00  0.00    +0.000 C 
ATOM      5  C   UNL     1     -65.078 -60.650 -76.994  0.00  0.00    +0.000 A 
ATOM      6  C   UNL     1     -65.373 -61.884 -74.763  0.00  0.00    +0.000 C 
ATOM      7  C   UNL     1     -67.624 -60.304 -75.027  0.00  0.00    +0.000 A 
ATOM      8  C   UNL     1     -66.000 -59.886 -77.695  0.00  0.00    +0.000 A 
ATOM      9  C   UNL     1     -66.735 -60.145 -73.950  0.00  0.00    +0.000 A 
ATOM     10  C   UNL     1     -63.718 -60.441 -77.152  0.00  0.00    +0.000 A 
ATOM     11  C   UNL     1     -68.906 -59.727 -74.960  0.00  0.00    +0.000 A 
ATOM     12  C   UNL     1     -65.592 -58.901 -78.572  0.00  0.00    +0.000 A 
ATOM     13  C   UNL     1     -67.113 -59.372 -72.843  0.00  0.00    +0.000 A 
ATOM     14  C   UNL     1     -63.291 -59.433 -78.029  0.00  0.00    +0.000 A 
ATOM     15  C   UNL     1     -64.222 -58.661 -78.743  0.00  0.00    +0.000 A 
ATOM     16  C   UNL     1     -69.302 -59.006 -73.838  0.00  0.00    +0.000 A 
ATOM     17  C   UNL     1     -68.408 -58.841 -72.791  0.00  0.00    +0.000 A 
ENDROOT
BRANCH  12  18
ATOM     18  O   UNL     1     -66.514 -58.164 -79.262  0.00  0.00    +0.000 OA
ATOM     19  H   UNL     1     -66.049 -57.865 -80.065  0.00  0.00    +0.000 HD
ENDBRANCH  12  18
BRANCH  13  20
ATOM     20  O   UNL     1     -66.345 -59.120 -71.730  0.00  0.00    +0.000 OA
ATOM     21  C   UNL     1     -66.139 -60.253 -70.887  0.00  0.00    +0.000 C 
ENDBRANCH  13  20
BRANCH  15  22
ATOM     22  O   UNL     1     -63.921 -57.657 -79.630  0.00  0.00    +0.000 OA
ATOM     23  C   UNL     1     -62.616 -57.096 -79.543  0.00  0.00    +0.000 C 
ENDBRANCH  15  22
BRANCH  17  24
ATOM     24  O   UNL     1     -68.816 -58.128 -71.696  0.00  0.00    +0.000 OA
ATOM     25  H   UNL     1     -69.628 -58.578 -71.394  0.00  0.00    +0.000 HD
ENDBRANCH  17  24
TORSDOF 4
ENDMDL
MODEL 6
REMARK VINA RESULT:      -4.8     11.471     13.558
REMARK  Name = 
REMARK  6 active torsions:
REMARK  status: ('A' for Active; 'I' for Inactive)
REMARK    1  A    between atoms: O_3  and  C_16
REMARK    2  A    between atoms: O_4  and  C_17
REMARK    3  A    between atoms: O_4  and  C_22
REMARK    4  A    between atoms: O_5  and  C_19
REMARK    5  A    between atoms: O_5  and  C_23
REMARK    6  A    between atoms: O_6  and  C_21
REMARK                            x       y       z     vdW  Elec       q    Type
REMARK                         _______ _______ _______ _____ _____    ______ ____
ROOT
ATOM      1  O   UNL     1     -56.684 -44.629 -47.297  0.00  0.00    +0.000 OA
ATOM      2  O   UNL     1     -55.020 -48.086 -46.368  0.00  0.00    +0.000 OA
ATOM      3  C   UNL     1     -55.453 -45.800 -45.578  0.00  0.00    +0.000 C 
ATOM      4  C   UNL     1     -55.418 -45.279 -47.018  0.00  0.00    +0.000 C 
ATOM      5  C   UNL     1     -56.927 -45.898 -45.384  0.00  0.00    +0.000 A 
ATOM      6  C   UNL     1     -54.645 -47.074 -45.435  0.00  0.00    +0.000 C 
ATOM      7  C   UNL     1     -55.153 -46.351 -48.053  0.00  0.00    +0.000 A 
ATOM      8  C   UNL     1     -57.555 -45.174 -46.387  0.00  0.00    +0.000 A 
ATOM      9  C   UNL     1     -54.986 -47.695 -47.680  0.00  0.00    +0.000 A 
ATOM     10  C   UNL     1     -57.662 -46.509 -44.383  0.00  0.00    +0.000 A 
ATOM     11  C   UNL     1     -55.081 -45.993 -49.412  0.00  0.00    +0.000 A 
ATOM     12  C   UNL     1     -58.928 -45.037 -46.415  0.00  0.00    +0.000 A 
ATOM     13  C   UNL     1     -54.798 -48.674 -48.667  0.00  0.00    +0.000 A 
ATOM     14  C   UNL     1     -59.059 -46.390 -44.408  0.00  0.00    +0.000 A 
ATOM     15  C   UNL     1     -59.699 -45.654 -45.420  0.00  0.00    +0.000 A 
ATOM     16  C   UNL     1     -54.840 -46.956 -50.387  0.00  0.00    +0.000 A 
ATOM     17  C   UNL     1     -54.695 -48.281 -50.006  0.00  0.00    +0.000 A 
ENDROOT
BRANCH  12  18
ATOM     18  O   UNL     1     -59.532 -44.312 -47.404  0.00  0.00    +0.000 OA
ATOM     19  H   UNL     1     -59.691 -43.433 -47.014  0.00  0.00    +0.000 HD
ENDBRANCH  12  18
BRANCH  13  20
ATOM     20  O   UNL     1     -54.636 -50.022 -48.450  0.00  0.00    +0.000 OA
ATOM     21  C   UNL     1     -53.319 -50.401 -48.054  0.00  0.00    +0.000 C 
ENDBRANCH  13  20
BRANCH  15  22
ATOM     22  O   UNL     1     -61.053 -45.463 -45.541  0.00  0.00    +0.000 OA
ATOM     23  C   UNL     1     -61.673 -44.637 -44.562  0.00  0.00    +0.000 C 
ENDBRANCH  15  22
BRANCH  17  24
ATOM     24  O   UNL     1     -54.460 -49.214 -50.981  0.00  0.00    +0.000 OA
ATOM     25  H   UNL     1     -53.764 -49.790 -50.612  0.00  0.00    +0.000 HD
ENDBRANCH  17  24
TORSDOF 4
ENDMDL
MODEL 7
REMARK VINA RESULT:      -4.7      4.972     10.389
REMARK  Name = 
REMARK  6 active torsions:
REMARK  status: ('A' for Active; 'I' for Inactive)
REMARK    1  A    between atoms: O_3  and  C_16
REMARK    2  A    between atoms: O_4  and  C_17
REMARK    3  A    between atoms: O_4  and  C_22
REMARK    4  A    between atoms: O_5  and  C_19
REMARK    5  A    between atoms: O_5  and  C_23
REMARK    6  A    between atoms: O_6  and  C_21
REMARK                            x       y       z     vdW  Elec       q    Type
REMARK                         _______ _______ _______ _____ _____    ______ ____
ROOT
ATOM      1  O   UNL     1     -60.111 -43.125 -61.888  0.00  0.00    +0.000 OA
ATOM      2  O   UNL     1     -56.957 -42.403 -59.626  0.00  0.00    +0.000 OA
ATOM      3  C   UNL     1     -59.292 -41.774 -60.058  0.00  0.00    +0.000 C 
ATOM      4  C   UNL     1     -59.127 -42.117 -61.543  0.00  0.00    +0.000 C 
ATOM      5  C   UNL     1     -59.958 -43.021 -59.587  0.00  0.00    +0.000 A 
ATOM      6  C   UNL     1     -57.964 -41.412 -59.427  0.00  0.00    +0.000 C 
ATOM      7  C   UNL     1     -57.742 -42.606 -61.909  0.00  0.00    +0.000 A 
ATOM      8  C   UNL     1     -60.428 -43.718 -60.691  0.00  0.00    +0.000 A 
ATOM      9  C   UNL     1     -56.738 -42.740 -60.936  0.00  0.00    +0.000 A 
ATOM     10  C   UNL     1     -60.197 -43.481 -58.304  0.00  0.00    +0.000 A 
ATOM     11  C   UNL     1     -57.461 -42.937 -63.248  0.00  0.00    +0.000 A 
ATOM     12  C   UNL     1     -61.149 -44.885 -60.544  0.00  0.00    +0.000 A 
ATOM     13  C   UNL     1     -55.482 -43.249 -61.296  0.00  0.00    +0.000 A 
ATOM     14  C   UNL     1     -60.915 -44.675 -58.141  0.00  0.00    +0.000 A 
ATOM     15  C   UNL     1     -61.395 -45.381 -59.257  0.00  0.00    +0.000 A 
ATOM     16  C   UNL     1     -56.198 -43.390 -63.616  0.00  0.00    +0.000 A 
ATOM     17  C   UNL     1     -55.222 -43.535 -62.642  0.00  0.00    +0.000 A 
ENDROOT
BRANCH  12  18
ATOM     18  O   UNL     1     -61.612 -45.555 -61.642  0.00  0.00    +0.000 OA
ATOM     19  H   UNL     1     -61.147 -45.154 -62.399  0.00  0.00    +0.000 HD
ENDBRANCH  12  18
BRANCH  13  20
ATOM     20  O   UNL     1     -54.415 -43.446 -60.451  0.00  0.00    +0.000 OA
ATOM     21  C   UNL     1     -53.664 -42.268 -60.165  0.00  0.00    +0.000 C 
ENDBRANCH  13  20
BRANCH  15  22
ATOM     22  O   UNL     1     -62.114 -46.551 -59.219  0.00  0.00    +0.000 OA
ATOM     23  C   UNL     1     -63.434 -46.474 -58.692  0.00  0.00    +0.000 C 
ENDBRANCH  15  22
BRANCH  17  24
ATOM     24  O   UNL     1     -53.986 -43.983 -63.025  0.00  0.00    +0.000 OA
ATOM     25  H   UNL     1     -53.802 -44.740 -62.437  0.00  0.00    +0.000 HD
ENDBRANCH  17  24
TORSDOF 4
ENDMDL
MODEL 8
REMARK VINA RESULT:      -4.6     31.877     34.061
REMARK  Name = 
REMARK  6 active torsions:
REMARK  status: ('A' for Active; 'I' for Inactive)
REMARK    1  A    between atoms: O_3  and  C_16
REMARK    2  A    between atoms: O_4  and  C_17
REMARK    3  A    between atoms: O_4  and  C_22
REMARK    4  A    between atoms: O_5  and  C_19
REMARK    5  A    between atoms: O_5  and  C_23
REMARK    6  A    between atoms: O_6  and  C_21
REMARK                            x       y       z     vdW  Elec       q    Type
REMARK                         _______ _______ _______ _____ _____    ______ ____
ROOT
ATOM      1  O   UNL     1     -59.706 -66.221 -83.423  0.00  0.00    +0.000 OA
ATOM      2  O   UNL     1     -61.233 -69.427 -81.699  0.00  0.00    +0.000 OA
ATOM      3  C   UNL     1     -61.773 -67.378 -82.941  0.00  0.00    +0.000 C 
ATOM      4  C   UNL     1     -60.555 -66.671 -82.337  0.00  0.00    +0.000 C 
ATOM      5  C   UNL     1     -61.209 -67.756 -84.267  0.00  0.00    +0.000 A 
ATOM      6  C   UNL     1     -62.259 -68.498 -82.045  0.00  0.00    +0.000 C 
ATOM      7  C   UNL     1     -59.756 -67.533 -81.384  0.00  0.00    +0.000 A 
ATOM      8  C   UNL     1     -60.049 -67.026 -84.481  0.00  0.00    +0.000 A 
ATOM      9  C   UNL     1     -60.122 -68.865 -81.127  0.00  0.00    +0.000 A 
ATOM     10  C   UNL     1     -61.696 -68.613 -85.239  0.00  0.00    +0.000 A 
ATOM     11  C   UNL     1     -58.622 -66.991 -80.751  0.00  0.00    +0.000 A 
ATOM     12  C   UNL     1     -59.349 -67.128 -85.666  0.00  0.00    +0.000 A 
ATOM     13  C   UNL     1     -59.329 -69.656 -80.284  0.00  0.00    +0.000 A 
ATOM     14  C   UNL     1     -60.986 -68.738 -86.442  0.00  0.00    +0.000 A 
ATOM     15  C   UNL     1     -59.813 -67.997 -86.663  0.00  0.00    +0.000 A 
ATOM     16  C   UNL     1     -57.866 -67.759 -79.871  0.00  0.00    +0.000 A 
ATOM     17  C   UNL     1     -58.229 -69.077 -79.642  0.00  0.00    +0.000 A 
ENDROOT
BRANCH  12  18
ATOM     18  O   UNL     1     -58.212 -66.395 -85.864  0.00  0.00    +0.000 OA
ATOM     19  H   UNL     1     -57.562 -66.761 -85.236  0.00  0.00    +0.000 HD
ENDBRANCH  12  18
BRANCH  13  20
ATOM     20  O   UNL     1     -59.558 -70.972 -79.956  0.00  0.00    +0.000 OA
ATOM     21  C   UNL     1     -59.059 -71.912 -80.906  0.00  0.00    +0.000 C 
ENDBRANCH  13  20
BRANCH  15  22
ATOM     22  O   UNL     1     -59.043 -68.032 -87.800  0.00  0.00    +0.000 OA
ATOM     23  C   UNL     1     -58.528 -69.301 -88.185  0.00  0.00    +0.000 C 
ENDBRANCH  15  22
BRANCH  17  24
ATOM     24  O   UNL     1     -57.471 -69.816 -78.773  0.00  0.00    +0.000 OA
ATOM     25  H   UNL     1     -57.298 -69.217 -78.021  0.00  0.00    +0.000 HD
ENDBRANCH  17  24
TORSDOF 4
ENDMDL
MODEL 9
REMARK VINA RESULT:      -4.6     35.804     37.836
REMARK  Name = 
REMARK  6 active torsions:
REMARK  status: ('A' for Active; 'I' for Inactive)
REMARK    1  A    between atoms: O_3  and  C_16
REMARK    2  A    between atoms: O_4  and  C_17
REMARK    3  A    between atoms: O_4  and  C_22
REMARK    4  A    between atoms: O_5  and  C_19
REMARK    5  A    between atoms: O_5  and  C_23
REMARK    6  A    between atoms: O_6  and  C_21
REMARK                            x       y       z     vdW  Elec       q    Type
REMARK                         _______ _______ _______ _____ _____    ______ ____
ROOT
ATOM      1  O   UNL     1     -66.211 -48.941 -19.738  0.00  0.00    +0.000 OA
ATOM      2  O   UNL     1     -66.475 -51.970 -17.220  0.00  0.00    +0.000 OA
ATOM      3  C   UNL     1     -66.707 -49.534 -17.449  0.00  0.00    +0.000 C 
ATOM      4  C   UNL     1     -65.632 -49.518 -18.540  0.00  0.00    +0.000 C 
ATOM      5  C   UNL     1     -67.929 -49.498 -18.301  0.00  0.00    +0.000 A 
ATOM      6  C   UNL     1     -66.535 -50.724 -16.527  0.00  0.00    +0.000 C 
ATOM      7  C   UNL     1     -65.056 -50.881 -18.855  0.00  0.00    +0.000 A 
ATOM      8  C   UNL     1     -67.564 -49.117 -19.584  0.00  0.00    +0.000 A 
ATOM      9  C   UNL     1     -65.515 -52.034 -18.196  0.00  0.00    +0.000 A 
ATOM     10  C   UNL     1     -69.257 -49.712 -17.975  0.00  0.00    +0.000 A 
ATOM     11  C   UNL     1     -64.048 -50.994 -19.830  0.00  0.00    +0.000 A 
ATOM     12  C   UNL     1     -68.511 -48.937 -20.571  0.00  0.00    +0.000 A 
ATOM     13  C   UNL     1     -65.001 -53.290 -18.549  0.00  0.00    +0.000 A 
ATOM     14  C   UNL     1     -70.228 -49.547 -18.973  0.00  0.00    +0.000 A 
ATOM     15  C   UNL     1     -69.862 -49.157 -20.273  0.00  0.00    +0.000 A 
ATOM     16  C   UNL     1     -63.499 -52.234 -20.142  0.00  0.00    +0.000 A 
ATOM     17  C   UNL     1     -63.974 -53.365 -19.497  0.00  0.00    +0.000 A 
ENDROOT
BRANCH  12  18
ATOM     18  O   UNL     1     -68.136 -48.552 -21.828  0.00  0.00    +0.000 OA
ATOM     19  H   UNL     1     -67.163 -48.496 -21.796  0.00  0.00    +0.000 HD
ENDBRANCH  12  18
BRANCH  13  20
ATOM     20  O   UNL     1     -65.366 -54.497 -18.001  0.00  0.00    +0.000 OA
ATOM     21  C   UNL     1     -64.782 -54.767 -16.728  0.00  0.00    +0.000 C 
ENDBRANCH  13  20
BRANCH  15  22
ATOM     22  O   UNL     1     -70.723 -48.958 -21.324  0.00  0.00    +0.000 OA
ATOM     23  C   UNL     1     -71.878 -49.789 -21.372  0.00  0.00    +0.000 C 
ENDBRANCH  15  22
BRANCH  17  24
ATOM     24  O   UNL     1     -63.421 -54.576 -19.819  0.00  0.00    +0.000 OA
ATOM     25  H   UNL     1     -62.776 -54.376 -20.524  0.00  0.00    +0.000 HD
ENDBRANCH  17  24
TORSDOF 4
ENDMDL
