MODEL 1
REMARK VINA RESULT:      -5.4      0.000      0.000
REMARK  Name = 
REMARK  9 active torsions:
REMARK  status: ('A' for Active; 'I' for Inactive)
REMARK    1  A    between atoms: O_1  and  N_7
REMARK    2  A    between atoms: O_1  and  C_20
REMARK    3  A    between atoms: O_2  and  C_14
REMARK    4  A    between atoms: O_3  and  C_18
REMARK    5  A    between atoms: O_4  and  C_25
REMARK    6  A    between atoms: C_8  and  C_10
REMARK    7  A    between atoms: C_17  and  C_18
REMARK    8  A    between atoms: C_17  and  C_20
REMARK    9  A    between atoms: C_18  and  C_25
REMARK                            x       y       z     vdW  Elec       q    Type
REMARK                         _______ _______ _______ _____ _____    ______ ____
ROOT
ATOM      1  N   UNL     1     -66.519 -46.545 -58.573  0.00  0.00    +0.000 NA
ATOM      2  N   UNL     1     -65.737 -48.138 -55.502  0.00  0.00    +0.000 NA
ATOM      3  C   UNL     1     -65.664 -46.900 -57.647  0.00  0.00    +0.000 C 
ATOM      4  C   UNL     1     -66.329 -47.766 -56.592  0.00  0.00    +0.000 C 
ATOM      5  C   UNL     1     -67.689 -47.941 -57.082  0.00  0.00    +0.000 A 
ATOM      6  C   UNL     1     -67.732 -47.175 -58.247  0.00  0.00    +0.000 A 
ATOM      7  C   UNL     1     -68.788 -48.639 -56.612  0.00  0.00    +0.000 A 
ATOM      8  C   UNL     1     -68.902 -47.092 -58.981  0.00  0.00    +0.000 A 
ATOM      9  C   UNL     1     -69.970 -48.556 -57.352  0.00  0.00    +0.000 A 
ATOM     10  C   UNL     1     -70.027 -47.788 -58.528  0.00  0.00    +0.000 A 
ENDROOT
BRANCH   3  12
ATOM     11  N   UNL     1     -62.329 -45.577 -57.119  0.00  0.00    +0.000 N 
ATOM     12  C   UNL     1     -64.291 -46.455 -57.704  0.00  0.00    +0.000 A 
ATOM     13  C   UNL     1     -63.379 -46.575 -58.806  0.00  0.00    +0.000 A 
ATOM     14  C   UNL     1     -62.167 -46.006 -58.414  0.00  0.00    +0.000 A 
ATOM     15  C   UNL     1     -63.593 -45.859 -56.669  0.00  0.00    +0.000 A 
ATOM     16  C   UNL     1     -63.474 -47.103 -60.112  0.00  0.00    +0.000 A 
ATOM     17  C   UNL     1     -61.050 -45.940 -59.254  0.00  0.00    +0.000 A 
ATOM     18  C   UNL     1     -62.368 -47.046 -60.966  0.00  0.00    +0.000 A 
ATOM     19  C   UNL     1     -61.173 -46.471 -60.541  0.00  0.00    +0.000 A 
ATOM     20  H   UNL     1     -61.597 -45.141 -56.578  0.00  0.00    +0.000 HD
BRANCH  15  21
ATOM     21  O   UNL     1     -63.964 -45.596 -55.421  0.00  0.00    +0.000 OA
ATOM     22  H   UNL     1     -64.917 -45.744 -55.310  0.00  0.00    +0.000 HD
ENDBRANCH  15  21
ENDBRANCH   3  12
BRANCH   2  23
ATOM     23  O   UNL     1     -66.576 -48.887 -54.674  0.00  0.00    +0.000 OA
BRANCH  23  24
ATOM     24  C   UNL     1     -66.006 -50.182 -54.509  0.00  0.00    +0.000 C 
BRANCH  24  25
ATOM     25  C   UNL     1     -65.524 -50.343 -53.075  0.00  0.00    +0.000 C 
BRANCH  25  26
ATOM     26  C   UNL     1     -64.091 -49.865 -52.840  0.00  0.00    +0.000 C 
BRANCH  26  27
ATOM     27  O   UNL     1     -63.427 -49.820 -54.112  0.00  0.00    +0.000 OA
ATOM     28  H   UNL     1     -63.146 -50.743 -54.273  0.00  0.00    +0.000 HD
ENDBRANCH  26  27
BRANCH  26  29
ATOM     29  C   UNL     1     -63.993 -48.477 -52.200  0.00  0.00    +0.000 C 
BRANCH  29  30
ATOM     30  O   UNL     1     -64.176 -47.498 -53.228  0.00  0.00    +0.000 OA
ATOM     31  H   UNL     1     -63.340 -47.001 -53.290  0.00  0.00    +0.000 HD
ENDBRANCH  29  30
ENDBRANCH  26  29
ENDBRANCH  25  26
ENDBRANCH  24  25
ENDBRANCH  23  24
ENDBRANCH   2  23
TORSDOF 9
ENDMDL
MODEL 2
REMARK VINA RESULT:      -5.4     23.424     27.294
REMARK  Name = 
REMARK  9 active torsions:
REMARK  status: ('A' for Active; 'I' for Inactive)
REMARK    1  A    between atoms: O_1  and  N_7
REMARK    2  A    between atoms: O_1  and  C_20
REMARK    3  A    between atoms: O_2  and  C_14
REMARK    4  A    between atoms: O_3  and  C_18
REMARK    5  A    between atoms: O_4  and  C_25
REMARK    6  A    between atoms: C_8  and  C_10
REMARK    7  A    between atoms: C_17  and  C_18
REMARK    8  A    between atoms: C_17  and  C_20
REMARK    9  A    between atoms: C_18  and  C_25
REMARK                            x       y       z     vdW  Elec       q    Type
REMARK                         _______ _______ _______ _____ _____    ______ ____
ROOT
ATOM      1  N   UNL     1     -71.192 -55.827 -33.251  0.00  0.00    +0.000 NA
ATOM      2  N   UNL     1     -68.180 -57.589 -32.615  0.00  0.00    +0.000 NA
ATOM      3  C   UNL     1     -70.280 -56.287 -32.431  0.00  0.00    +0.000 C 
ATOM      4  C   UNL     1     -69.141 -56.940 -33.192  0.00  0.00    +0.000 C 
ATOM      5  C   UNL     1     -69.476 -56.720 -34.592  0.00  0.00    +0.000 A 
ATOM      6  C   UNL     1     -70.711 -56.072 -34.548  0.00  0.00    +0.000 A 
ATOM      7  C   UNL     1     -68.846 -57.034 -35.783  0.00  0.00    +0.000 A 
ATOM      8  C   UNL     1     -71.353 -55.718 -35.722  0.00  0.00    +0.000 A 
ATOM      9  C   UNL     1     -69.492 -56.677 -36.969  0.00  0.00    +0.000 A 
ATOM     10  C   UNL     1     -70.737 -56.025 -36.939  0.00  0.00    +0.000 A 
ENDROOT
BRANCH   3  12
ATOM     11  N   UNL     1     -70.367 -55.332 -28.933  0.00  0.00    +0.000 N 
ATOM     12  C   UNL     1     -70.442 -56.156 -31.002  0.00  0.00    +0.000 A 
ATOM     13  C   UNL     1     -71.067 -57.088 -30.106  0.00  0.00    +0.000 A 
ATOM     14  C   UNL     1     -70.992 -56.550 -28.821  0.00  0.00    +0.000 A 
ATOM     15  C   UNL     1     -70.049 -55.069 -30.241  0.00  0.00    +0.000 A 
ATOM     16  C   UNL     1     -71.678 -58.350 -30.264  0.00  0.00    +0.000 A 
ATOM     17  C   UNL     1     -71.497 -57.204 -27.690  0.00  0.00    +0.000 A 
ATOM     18  C   UNL     1     -72.189 -59.019 -29.146  0.00  0.00    +0.000 A 
ATOM     19  C   UNL     1     -72.098 -58.452 -27.878  0.00  0.00    +0.000 A 
ATOM     20  H   UNL     1     -70.198 -54.714 -28.154  0.00  0.00    +0.000 HD
BRANCH  15  21
ATOM     21  O   UNL     1     -69.495 -53.919 -30.607  0.00  0.00    +0.000 OA
ATOM     22  H   UNL     1     -69.115 -53.464 -29.839  0.00  0.00    +0.000 HD
ENDBRANCH  15  21
ENDBRANCH   3  12
BRANCH   2  23
ATOM     23  O   UNL     1     -67.284 -58.137 -33.536  0.00  0.00    +0.000 OA
BRANCH  23  24
ATOM     24  C   UNL     1     -67.243 -59.547 -33.339  0.00  0.00    +0.000 C 
BRANCH  24  25
ATOM     25  C   UNL     1     -68.054 -60.234 -34.429  0.00  0.00    +0.000 C 
BRANCH  25  26
ATOM     26  C   UNL     1     -69.418 -60.745 -33.965  0.00  0.00    +0.000 C 
BRANCH  26  27
ATOM     27  O   UNL     1     -69.628 -60.283 -32.622  0.00  0.00    +0.000 OA
ATOM     28  H   UNL     1     -70.418 -59.709 -32.682  0.00  0.00    +0.000 HD
ENDBRANCH  26  27
BRANCH  26  29
ATOM     29  C   UNL     1     -70.591 -60.263 -34.825  0.00  0.00    +0.000 C 
BRANCH  29  30
ATOM     30  O   UNL     1     -71.470 -59.500 -33.993  0.00  0.00    +0.000 OA
ATOM     31  H   UNL     1     -72.263 -60.047 -33.851  0.00  0.00    +0.000 HD
ENDBRANCH  29  30
ENDBRANCH  26  29
ENDBRANCH  25  26
ENDBRANCH  24  25
ENDBRANCH  23  24
ENDBRANCH   2  23
TORSDOF 9
ENDMDL
MODEL 3
REMARK VINA RESULT:      -5.3      2.374      6.573
REMARK  Name = 
REMARK  9 active torsions:
REMARK  status: ('A' for Active; 'I' for Inactive)
REMARK    1  A    between atoms: O_1  and  N_7
REMARK    2  A    between atoms: O_1  and  C_20
REMARK    3  A    between atoms: O_2  and  C_14
REMARK    4  A    between atoms: O_3  and  C_18
REMARK    5  A    between atoms: O_4  and  C_25
REMARK    6  A    between atoms: C_8  and  C_10
REMARK    7  A    between atoms: C_17  and  C_18
REMARK    8  A    between atoms: C_17  and  C_20
REMARK    9  A    between atoms: C_18  and  C_25
REMARK                            x       y       z     vdW  Elec       q    Type
REMARK                         _______ _______ _______ _____ _____    ______ ____
ROOT
ATOM      1  N   UNL     1     -62.556 -46.004 -57.051  0.00  0.00    +0.000 NA
ATOM      2  N   UNL     1     -65.821 -46.930 -58.080  0.00  0.00    +0.000 NA
ATOM      3  C   UNL     1     -63.806 -46.290 -56.788  0.00  0.00    +0.000 C 
ATOM      4  C   UNL     1     -64.544 -46.720 -58.043  0.00  0.00    +0.000 C 
ATOM      5  C   UNL     1     -63.516 -46.729 -59.074  0.00  0.00    +0.000 A 
ATOM      6  C   UNL     1     -62.372 -46.277 -58.417  0.00  0.00    +0.000 A 
ATOM      7  C   UNL     1     -63.519 -47.055 -60.419  0.00  0.00    +0.000 A 
ATOM      8  C   UNL     1     -61.181 -46.139 -59.109  0.00  0.00    +0.000 A 
ATOM      9  C   UNL     1     -62.318 -46.917 -61.119  0.00  0.00    +0.000 A 
ATOM     10  C   UNL     1     -61.157 -46.461 -60.470  0.00  0.00    +0.000 A 
ENDROOT
BRANCH   3  12
ATOM     11  N   UNL     1     -65.169 -45.273 -53.584  0.00  0.00    +0.000 N 
ATOM     12  C   UNL     1     -64.324 -46.159 -55.446  0.00  0.00    +0.000 A 
ATOM     13  C   UNL     1     -64.522 -47.203 -54.481  0.00  0.00    +0.000 A 
ATOM     14  C   UNL     1     -65.038 -46.617 -53.325  0.00  0.00    +0.000 A 
ATOM     15  C   UNL     1     -64.766 -44.985 -54.862  0.00  0.00    +0.000 A 
ATOM     16  C   UNL     1     -64.295 -48.597 -54.475  0.00  0.00    +0.000 A 
ATOM     17  C   UNL     1     -65.341 -47.346 -52.170  0.00  0.00    +0.000 A 
ATOM     18  C   UNL     1     -64.592 -49.343 -53.330  0.00  0.00    +0.000 A 
ATOM     19  C   UNL     1     -65.107 -48.725 -52.194  0.00  0.00    +0.000 A 
ATOM     20  H   UNL     1     -65.541 -44.609 -52.922  0.00  0.00    +0.000 HD
BRANCH  15  21
ATOM     21  O   UNL     1     -64.862 -43.758 -55.364  0.00  0.00    +0.000 OA
ATOM     22  H   UNL     1     -64.387 -43.123 -54.805  0.00  0.00    +0.000 HD
ENDBRANCH  15  21
ENDBRANCH   3  12
BRANCH   2  23
ATOM     23  O   UNL     1     -66.265 -47.269 -59.360  0.00  0.00    +0.000 OA
BRANCH  23  24
ATOM     24  C   UNL     1     -67.682 -47.410 -59.322  0.00  0.00    +0.000 C 
BRANCH  24  25
ATOM     25  C   UNL     1     -68.310 -46.498 -60.366  0.00  0.00    +0.000 C 
BRANCH  25  26
ATOM     26  C   UNL     1     -68.308 -45.017 -59.985  0.00  0.00    +0.000 C 
BRANCH  26  27
ATOM     27  O   UNL     1     -67.963 -44.921 -58.594  0.00  0.00    +0.000 OA
ATOM     28  H   UNL     1     -67.682 -43.991 -58.477  0.00  0.00    +0.000 HD
ENDBRANCH  26  27
BRANCH  26  29
ATOM     29  C   UNL     1     -67.315 -44.168 -60.784  0.00  0.00    +0.000 C 
BRANCH  29  30
ATOM     30  O   UNL     1     -65.991 -44.526 -60.374  0.00  0.00    +0.000 OA
ATOM     31  H   UNL     1     -65.382 -43.946 -60.866  0.00  0.00    +0.000 HD
ENDBRANCH  29  30
ENDBRANCH  26  29
ENDBRANCH  25  26
ENDBRANCH  24  25
ENDBRANCH  23  24
ENDBRANCH   2  23
TORSDOF 9
ENDMDL
MODEL 4
REMARK VINA RESULT:      -5.1     18.133     22.188
REMARK  Name = 
REMARK  9 active torsions:
REMARK  status: ('A' for Active; 'I' for Inactive)
REMARK    1  A    between atoms: O_1  and  N_7
REMARK    2  A    between atoms: O_1  and  C_20
REMARK    3  A    between atoms: O_2  and  C_14
REMARK    4  A    between atoms: O_3  and  C_18
REMARK    5  A    between atoms: O_4  and  C_25
REMARK    6  A    between atoms: C_8  and  C_10
REMARK    7  A    between atoms: C_17  and  C_18
REMARK    8  A    between atoms: C_17  and  C_20
REMARK    9  A    between atoms: C_18  and  C_25
REMARK                            x       y       z     vdW  Elec       q    Type
REMARK                         _______ _______ _______ _____ _____    ______ ____
ROOT
ATOM      1  N   UNL     1     -67.547 -57.859 -35.920  0.00  0.00    +0.000 NA
ATOM      2  N   UNL     1     -70.447 -56.107 -36.971  0.00  0.00    +0.000 NA
ATOM      3  C   UNL     1     -68.272 -57.288 -36.849  0.00  0.00    +0.000 C 
ATOM      4  C   UNL     1     -69.501 -56.625 -36.254  0.00  0.00    +0.000 C 
ATOM      5  C   UNL     1     -69.347 -56.816 -34.818  0.00  0.00    +0.000 A 
ATOM      6  C   UNL     1     -68.179 -57.569 -34.699  0.00  0.00    +0.000 A 
ATOM      7  C   UNL     1     -70.096 -56.430 -33.720  0.00  0.00    +0.000 A 
ATOM      8  C   UNL     1     -67.728 -57.959 -33.450  0.00  0.00    +0.000 A 
ATOM      9  C   UNL     1     -69.643 -56.823 -32.459  0.00  0.00    +0.000 A 
ATOM     10  C   UNL     1     -68.468 -57.583 -32.324  0.00  0.00    +0.000 A 
ENDROOT
BRANCH   3  12
ATOM     11  N   UNL     1     -67.380 -58.159 -40.255  0.00  0.00    +0.000 N 
ATOM     12  C   UNL     1     -67.876 -57.356 -38.236  0.00  0.00    +0.000 A 
ATOM     13  C   UNL     1     -67.528 -56.264 -39.100  0.00  0.00    +0.000 A 
ATOM     14  C   UNL     1     -67.211 -56.798 -40.349  0.00  0.00    +0.000 A 
ATOM     15  C   UNL     1     -67.801 -58.509 -38.999  0.00  0.00    +0.000 A 
ATOM     16  C   UNL     1     -67.438 -54.865 -38.933  0.00  0.00    +0.000 A 
ATOM     17  C   UNL     1     -66.813 -56.011 -41.436  0.00  0.00    +0.000 A 
ATOM     18  C   UNL     1     -67.042 -54.062 -40.008  0.00  0.00    +0.000 A 
ATOM     19  C   UNL     1     -66.733 -54.629 -41.241  0.00  0.00    +0.000 A 
ATOM     20  H   UNL     1     -67.238 -58.795 -41.025  0.00  0.00    +0.000 HD
BRANCH  15  21
ATOM     21  O   UNL     1     -68.095 -59.767 -38.686  0.00  0.00    +0.000 OA
ATOM     22  H   UNL     1     -68.331 -60.269 -39.483  0.00  0.00    +0.000 HD
ENDBRANCH  15  21
ENDBRANCH   3  12
BRANCH   2  23
ATOM     23  O   UNL     1     -71.488 -55.603 -36.188  0.00  0.00    +0.000 OA
BRANCH  23  24
ATOM     24  C   UNL     1     -72.388 -54.897 -37.037  0.00  0.00    +0.000 C 
BRANCH  24  25
ATOM     25  C   UNL     1     -72.290 -53.406 -36.750  0.00  0.00    +0.000 C 
BRANCH  25  26
ATOM     26  C   UNL     1     -71.469 -52.624 -37.776  0.00  0.00    +0.000 C 
BRANCH  26  27
ATOM     27  O   UNL     1     -70.632 -53.559 -38.474  0.00  0.00    +0.000 OA
ATOM     28  H   UNL     1     -69.870 -53.697 -37.876  0.00  0.00    +0.000 HD
ENDBRANCH  26  27
BRANCH  26  29
ATOM     29  C   UNL     1     -72.314 -51.874 -38.811  0.00  0.00    +0.000 C 
BRANCH  29  30
ATOM     30  O   UNL     1     -71.427 -51.168 -39.685  0.00  0.00    +0.000 OA
ATOM     31  H   UNL     1     -70.999 -51.840 -40.246  0.00  0.00    +0.000 HD
ENDBRANCH  29  30
ENDBRANCH  26  29
ENDBRANCH  25  26
ENDBRANCH  24  25
ENDBRANCH  23  24
ENDBRANCH   2  23
TORSDOF 9
ENDMDL
MODEL 5
REMARK VINA RESULT:      -4.9      2.239      4.695
REMARK  Name = 
REMARK  9 active torsions:
REMARK  status: ('A' for Active; 'I' for Inactive)
REMARK    1  A    between atoms: O_1  and  N_7
REMARK    2  A    between atoms: O_1  and  C_20
REMARK    3  A    between atoms: O_2  and  C_14
REMARK    4  A    between atoms: O_3  and  C_18
REMARK    5  A    between atoms: O_4  and  C_25
REMARK    6  A    between atoms: C_8  and  C_10
REMARK    7  A    between atoms: C_17  and  C_18
REMARK    8  A    between atoms: C_17  and  C_20
REMARK    9  A    between atoms: C_18  and  C_25
REMARK                            x       y       z     vdW  Elec       q    Type
REMARK                         _______ _______ _______ _____ _____    ______ ____
ROOT
ATOM      1  N   UNL     1     -62.928 -44.519 -55.836  0.00  0.00    +0.000 NA
ATOM      2  N   UNL     1     -64.857 -47.141 -54.425  0.00  0.00    +0.000 NA
ATOM      3  C   UNL     1     -63.737 -45.542 -55.952  0.00  0.00    +0.000 C 
ATOM      4  C   UNL     1     -64.166 -46.058 -54.590  0.00  0.00    +0.000 C 
ATOM      5  C   UNL     1     -63.556 -45.128 -53.650  0.00  0.00    +0.000 A 
ATOM      6  C   UNL     1     -62.825 -44.258 -54.459  0.00  0.00    +0.000 A 
ATOM      7  C   UNL     1     -63.579 -45.016 -52.271  0.00  0.00    +0.000 A 
ATOM      8  C   UNL     1     -62.086 -43.235 -53.890  0.00  0.00    +0.000 A 
ATOM      9  C   UNL     1     -62.834 -43.983 -51.695  0.00  0.00    +0.000 A 
ATOM     10  C   UNL     1     -62.093 -43.100 -52.498  0.00  0.00    +0.000 A 
ENDROOT
BRANCH   3  12
ATOM     11  N   UNL     1     -65.305 -46.795 -58.973  0.00  0.00    +0.000 N 
ATOM     12  C   UNL     1     -64.097 -46.052 -57.255  0.00  0.00    +0.000 A 
ATOM     13  C   UNL     1     -63.219 -46.339 -58.353  0.00  0.00    +0.000 A 
ATOM     14  C   UNL     1     -64.001 -46.813 -59.406  0.00  0.00    +0.000 A 
ATOM     15  C   UNL     1     -65.383 -46.319 -57.690  0.00  0.00    +0.000 A 
ATOM     16  C   UNL     1     -61.823 -46.255 -58.548  0.00  0.00    +0.000 A 
ATOM     17  C   UNL     1     -63.465 -47.203 -60.639  0.00  0.00    +0.000 A 
ATOM     18  C   UNL     1     -61.269 -46.640 -59.773  0.00  0.00    +0.000 A 
ATOM     19  C   UNL     1     -62.080 -47.108 -60.803  0.00  0.00    +0.000 A 
ATOM     20  H   UNL     1     -66.089 -47.070 -59.545  0.00  0.00    +0.000 HD
BRANCH  15  21
ATOM     21  O   UNL     1     -66.551 -46.148 -57.079  0.00  0.00    +0.000 OA
ATOM     22  H   UNL     1     -66.493 -46.425 -56.150  0.00  0.00    +0.000 HD
ENDBRANCH  15  21
ENDBRANCH   3  12
BRANCH   2  23
ATOM     23  O   UNL     1     -65.081 -47.425 -53.076  0.00  0.00    +0.000 OA
BRANCH  23  24
ATOM     24  C   UNL     1     -66.315 -48.129 -52.964  0.00  0.00    +0.000 C 
BRANCH  24  25
ATOM     25  C   UNL     1     -66.044 -49.554 -52.506  0.00  0.00    +0.000 C 
BRANCH  25  26
ATOM     26  C   UNL     1     -65.682 -50.516 -53.637  0.00  0.00    +0.000 C 
BRANCH  26  27
ATOM     27  O   UNL     1     -66.049 -49.894 -54.878  0.00  0.00    +0.000 OA
ATOM     28  H   UNL     1     -66.331 -48.993 -54.624  0.00  0.00    +0.000 HD
ENDBRANCH  26  27
BRANCH  26  29
ATOM     29  C   UNL     1     -64.193 -50.872 -53.702  0.00  0.00    +0.000 C 
BRANCH  29  30
ATOM     30  O   UNL     1     -63.447 -49.761 -53.193  0.00  0.00    +0.000 OA
ATOM     31  H   UNL     1     -62.584 -49.777 -53.644  0.00  0.00    +0.000 HD
ENDBRANCH  29  30
ENDBRANCH  26  29
ENDBRANCH  25  26
ENDBRANCH  24  25
ENDBRANCH  23  24
ENDBRANCH   2  23
TORSDOF 9
ENDMDL
MODEL 6
REMARK VINA RESULT:      -4.9     27.929     31.896
REMARK  Name = 
REMARK  9 active torsions:
REMARK  status: ('A' for Active; 'I' for Inactive)
REMARK    1  A    between atoms: O_1  and  N_7
REMARK    2  A    between atoms: O_1  and  C_20
REMARK    3  A    between atoms: O_2  and  C_14
REMARK    4  A    between atoms: O_3  and  C_18
REMARK    5  A    between atoms: O_4  and  C_25
REMARK    6  A    between atoms: C_8  and  C_10
REMARK    7  A    between atoms: C_17  and  C_18
REMARK    8  A    between atoms: C_17  and  C_20
REMARK    9  A    between atoms: C_18  and  C_25
REMARK                            x       y       z     vdW  Elec       q    Type
REMARK                         _______ _______ _______ _____ _____    ______ ____
ROOT
ATOM      1  N   UNL     1     -71.617 -58.625 -26.329  0.00  0.00    +0.000 NA
ATOM      2  N   UNL     1     -73.974 -56.127 -27.218  0.00  0.00    +0.000 NA
ATOM      3  C   UNL     1     -72.156 -57.811 -27.202  0.00  0.00    +0.000 C 
ATOM      4  C   UNL     1     -73.203 -56.925 -26.550  0.00  0.00    +0.000 C 
ATOM      5  C   UNL     1     -73.139 -57.279 -25.139  0.00  0.00    +0.000 A 
ATOM      6  C   UNL     1     -72.193 -58.303 -25.088  0.00  0.00    +0.000 A 
ATOM      7  C   UNL     1     -73.802 -56.825 -24.012  0.00  0.00    +0.000 A 
ATOM      8  C   UNL     1     -71.885 -58.906 -23.881  0.00  0.00    +0.000 A 
ATOM      9  C   UNL     1     -73.492 -57.431 -22.792  0.00  0.00    +0.000 A 
ATOM     10  C   UNL     1     -72.541 -58.465 -22.727  0.00  0.00    +0.000 A 
ENDROOT
BRANCH   3  12
ATOM     11  N   UNL     1     -71.407 -58.557 -30.671  0.00  0.00    +0.000 N 
ATOM     12  C   UNL     1     -71.751 -57.846 -28.588  0.00  0.00    +0.000 A 
ATOM     13  C   UNL     1     -71.131 -56.794 -29.343  0.00  0.00    +0.000 A 
ATOM     14  C   UNL     1     -70.917 -57.274 -30.635  0.00  0.00    +0.000 A 
ATOM     15  C   UNL     1     -71.932 -58.909 -29.455  0.00  0.00    +0.000 A 
ATOM     16  C   UNL     1     -70.715 -55.479 -29.044  0.00  0.00    +0.000 A 
ATOM     17  C   UNL     1     -70.314 -56.509 -31.641  0.00  0.00    +0.000 A 
ATOM     18  C   UNL     1     -70.111 -54.700 -30.036  0.00  0.00    +0.000 A 
ATOM     19  C   UNL     1     -69.913 -55.210 -31.316  0.00  0.00    +0.000 A 
ATOM     20  H   UNL     1     -71.399 -59.136 -31.497  0.00  0.00    +0.000 HD
BRANCH  15  21
ATOM     21  O   UNL     1     -72.525 -60.083 -29.264  0.00  0.00    +0.000 OA
ATOM     22  H   UNL     1     -71.990 -60.643 -28.679  0.00  0.00    +0.000 HD
ENDBRANCH  15  21
ENDBRANCH   3  12
BRANCH   2  23
ATOM     23  O   UNL     1     -74.883 -55.459 -26.394  0.00  0.00    +0.000 OA
BRANCH  23  24
ATOM     24  C   UNL     1     -75.242 -54.232 -27.024  0.00  0.00    +0.000 C 
BRANCH  24  25
ATOM     25  C   UNL     1     -74.423 -53.097 -26.425  0.00  0.00    +0.000 C 
BRANCH  25  26
ATOM     26  C   UNL     1     -74.084 -51.981 -27.413  0.00  0.00    +0.000 C 
BRANCH  26  27
ATOM     27  O   UNL     1     -73.485 -50.906 -26.674  0.00  0.00    +0.000 OA
ATOM     28  H   UNL     1     -73.652 -51.132 -25.737  0.00  0.00    +0.000 HD
ENDBRANCH  26  27
BRANCH  26  29
ATOM     29  C   UNL     1     -73.112 -52.402 -28.520  0.00  0.00    +0.000 C 
BRANCH  29  30
ATOM     30  O   UNL     1     -71.850 -51.776 -28.266  0.00  0.00    +0.000 OA
ATOM     31  H   UNL     1     -72.045 -50.869 -27.967  0.00  0.00    +0.000 HD
ENDBRANCH  29  30
ENDBRANCH  26  29
ENDBRANCH  25  26
ENDBRANCH  24  25
ENDBRANCH  23  24
ENDBRANCH   2  23
TORSDOF 9
ENDMDL
MODEL 7
REMARK VINA RESULT:      -4.9     29.483     32.732
REMARK  Name = 
REMARK  9 active torsions:
REMARK  status: ('A' for Active; 'I' for Inactive)
REMARK    1  A    between atoms: O_1  and  N_7
REMARK    2  A    between atoms: O_1  and  C_20
REMARK    3  A    between atoms: O_2  and  C_14
REMARK    4  A    between atoms: O_3  and  C_18
REMARK    5  A    between atoms: O_4  and  C_25
REMARK    6  A    between atoms: C_8  and  C_10
REMARK    7  A    between atoms: C_17  and  C_18
REMARK    8  A    between atoms: C_17  and  C_20
REMARK    9  A    between atoms: C_18  and  C_25
REMARK                            x       y       z     vdW  Elec       q    Type
REMARK                         _______ _______ _______ _____ _____    ______ ____
ROOT
ATOM      1  N   UNL     1     -61.776 -51.028 -23.623  0.00  0.00    +0.000 NA
ATOM      2  N   UNL     1     -60.708 -53.929 -25.362  0.00  0.00    +0.000 NA
ATOM      3  C   UNL     1     -61.376 -51.633 -24.713  0.00  0.00    +0.000 C 
ATOM      4  C   UNL     1     -61.217 -53.125 -24.484  0.00  0.00    +0.000 C 
ATOM      5  C   UNL     1     -61.669 -53.324 -23.114  0.00  0.00    +0.000 A 
ATOM      6  C   UNL     1     -61.965 -52.037 -22.664  0.00  0.00    +0.000 A 
ATOM      7  C   UNL     1     -61.804 -54.441 -22.308  0.00  0.00    +0.000 A 
ATOM      8  C   UNL     1     -62.413 -51.840 -21.370  0.00  0.00    +0.000 A 
ATOM      9  C   UNL     1     -62.258 -54.244 -21.002  0.00  0.00    +0.000 A 
ATOM     10  C   UNL     1     -62.559 -52.953 -20.535  0.00  0.00    +0.000 A 
ENDROOT
BRANCH   3  12
ATOM     11  N   UNL     1     -61.449 -49.623 -27.732  0.00  0.00    +0.000 N 
ATOM     12  C   UNL     1     -61.127 -50.882 -25.922  0.00  0.00    +0.000 A 
ATOM     13  C   UNL     1     -59.865 -50.667 -26.571  0.00  0.00    +0.000 A 
ATOM     14  C   UNL     1     -60.101 -49.888 -27.704  0.00  0.00    +0.000 A 
ATOM     15  C   UNL     1     -62.077 -50.195 -26.656  0.00  0.00    +0.000 A 
ATOM     16  C   UNL     1     -58.539 -51.074 -26.309  0.00  0.00    +0.000 A 
ATOM     17  C   UNL     1     -59.086 -49.495 -28.584  0.00  0.00    +0.000 A 
ATOM     18  C   UNL     1     -57.510 -50.691 -27.177  0.00  0.00    +0.000 A 
ATOM     19  C   UNL     1     -57.783 -49.913 -28.298  0.00  0.00    +0.000 A 
ATOM     20  H   UNL     1     -61.894 -49.058 -28.439  0.00  0.00    +0.000 HD
BRANCH  15  21
ATOM     21  O   UNL     1     -63.375 -50.020 -26.432  0.00  0.00    +0.000 OA
ATOM     22  H   UNL     1     -63.632 -49.102 -26.611  0.00  0.00    +0.000 HD
ENDBRANCH  15  21
ENDBRANCH   3  12
BRANCH   2  23
ATOM     23  O   UNL     1     -60.627 -55.242 -24.893  0.00  0.00    +0.000 OA
BRANCH  23  24
ATOM     24  C   UNL     1     -60.207 -56.078 -25.968  0.00  0.00    +0.000 C 
BRANCH  24  25
ATOM     25  C   UNL     1     -58.901 -56.765 -25.593  0.00  0.00    +0.000 C 
BRANCH  25  26
ATOM     26  C   UNL     1     -57.677 -55.852 -25.645  0.00  0.00    +0.000 C 
BRANCH  26  27
ATOM     27  O   UNL     1     -58.038 -54.673 -26.382  0.00  0.00    +0.000 OA
ATOM     28  H   UNL     1     -58.670 -54.206 -25.799  0.00  0.00    +0.000 HD
ENDBRANCH  26  27
BRANCH  26  29
ATOM     29  C   UNL     1     -57.163 -55.417 -24.268  0.00  0.00    +0.000 C 
BRANCH  29  30
ATOM     30  O   UNL     1     -58.019 -54.377 -23.782  0.00  0.00    +0.000 OA
ATOM     31  H   UNL     1     -57.554 -53.537 -23.944  0.00  0.00    +0.000 HD
ENDBRANCH  29  30
ENDBRANCH  26  29
ENDBRANCH  25  26
ENDBRANCH  24  25
ENDBRANCH  23  24
ENDBRANCH   2  23
TORSDOF 9
ENDMDL
MODEL 8
REMARK VINA RESULT:      -4.8     31.917     35.985
REMARK  Name = 
REMARK  9 active torsions:
REMARK  status: ('A' for Active; 'I' for Inactive)
REMARK    1  A    between atoms: O_1  and  N_7
REMARK    2  A    between atoms: O_1  and  C_20
REMARK    3  A    between atoms: O_2  and  C_14
REMARK    4  A    between atoms: O_3  and  C_18
REMARK    5  A    between atoms: O_4  and  C_25
REMARK    6  A    between atoms: C_8  and  C_10
REMARK    7  A    between atoms: C_17  and  C_18
REMARK    8  A    between atoms: C_17  and  C_20
REMARK    9  A    between atoms: C_18  and  C_25
REMARK                            x       y       z     vdW  Elec       q    Type
REMARK                         _______ _______ _______ _____ _____    ______ ____
ROOT
ATOM      1  N   UNL     1     -62.891 -54.571 -20.273  0.00  0.00    +0.000 NA
ATOM      2  N   UNL     1     -62.015 -51.845 -22.367  0.00  0.00    +0.000 NA
ATOM      3  C   UNL     1     -62.176 -54.044 -21.235  0.00  0.00    +0.000 C 
ATOM      4  C   UNL     1     -62.487 -52.567 -21.401  0.00  0.00    +0.000 C 
ATOM      5  C   UNL     1     -63.433 -52.281 -20.332  0.00  0.00    +0.000 A 
ATOM      6  C   UNL     1     -63.638 -53.518 -19.719  0.00  0.00    +0.000 A 
ATOM      7  C   UNL     1     -64.078 -51.130 -19.913  0.00  0.00    +0.000 A 
ATOM      8  C   UNL     1     -64.511 -53.629 -18.651  0.00  0.00    +0.000 A 
ATOM      9  C   UNL     1     -64.959 -51.240 -18.835  0.00  0.00    +0.000 A 
ATOM     10  C   UNL     1     -65.176 -52.480 -18.209  0.00  0.00    +0.000 A 
ENDROOT
BRANCH   3  12
ATOM     11  N   UNL     1     -60.288 -55.931 -23.690  0.00  0.00    +0.000 N 
ATOM     12  C   UNL     1     -61.253 -54.854 -21.995  0.00  0.00    +0.000 A 
ATOM     13  C   UNL     1     -60.061 -55.498 -21.520  0.00  0.00    +0.000 A 
ATOM     14  C   UNL     1     -59.489 -56.172 -22.599  0.00  0.00    +0.000 A 
ATOM     15  C   UNL     1     -61.341 -55.122 -23.350  0.00  0.00    +0.000 A 
ATOM     16  C   UNL     1     -59.420 -55.584 -20.266  0.00  0.00    +0.000 A 
ATOM     17  C   UNL     1     -58.312 -56.923 -22.490  0.00  0.00    +0.000 A 
ATOM     18  C   UNL     1     -58.243 -56.330 -20.137  0.00  0.00    +0.000 A 
ATOM     19  C   UNL     1     -57.699 -56.989 -21.236  0.00  0.00    +0.000 A 
ATOM     20  H   UNL     1     -60.095 -56.285 -24.615  0.00  0.00    +0.000 HD
BRANCH  15  21
ATOM     21  O   UNL     1     -62.215 -54.697 -24.255  0.00  0.00    +0.000 OA
ATOM     22  H   UNL     1     -62.388 -53.749 -24.144  0.00  0.00    +0.000 HD
ENDBRANCH  15  21
ENDBRANCH   3  12
BRANCH   2  23
ATOM     23  O   UNL     1     -62.488 -50.532 -22.326  0.00  0.00    +0.000 OA
BRANCH  23  24
ATOM     24  C   UNL     1     -61.411 -49.656 -22.649  0.00  0.00    +0.000 C 
BRANCH  24  25
ATOM     25  C   UNL     1     -61.549 -49.197 -24.094  0.00  0.00    +0.000 C 
BRANCH  25  26
ATOM     26  C   UNL     1     -60.824 -50.087 -25.104  0.00  0.00    +0.000 C 
BRANCH  26  27
ATOM     27  O   UNL     1     -60.020 -51.022 -24.370  0.00  0.00    +0.000 OA
ATOM     28  H   UNL     1     -60.645 -51.728 -24.109  0.00  0.00    +0.000 HD
ENDBRANCH  26  27
BRANCH  26  29
ATOM     29  C   UNL     1     -61.761 -50.878 -26.023  0.00  0.00    +0.000 C 
BRANCH  29  30
ATOM     30  O   UNL     1     -62.320 -51.957 -25.267  0.00  0.00    +0.000 OA
ATOM     31  H   UNL     1     -62.737 -52.559 -25.909  0.00  0.00    +0.000 HD
ENDBRANCH  29  30
ENDBRANCH  26  29
ENDBRANCH  25  26
ENDBRANCH  24  25
ENDBRANCH  23  24
ENDBRANCH   2  23
TORSDOF 9
ENDMDL
MODEL 9
REMARK VINA RESULT:      -4.7      5.447      9.454
REMARK  Name = 
REMARK  9 active torsions:
REMARK  status: ('A' for Active; 'I' for Inactive)
REMARK    1  A    between atoms: O_1  and  N_7
REMARK    2  A    between atoms: O_1  and  C_20
REMARK    3  A    between atoms: O_2  and  C_14
REMARK    4  A    between atoms: O_3  and  C_18
REMARK    5  A    between atoms: O_4  and  C_25
REMARK    6  A    between atoms: C_8  and  C_10
REMARK    7  A    between atoms: C_17  and  C_18
REMARK    8  A    between atoms: C_17  and  C_20
REMARK    9  A    between atoms: C_18  and  C_25
REMARK                            x       y       z     vdW  Elec       q    Type
REMARK                         _______ _______ _______ _____ _____    ______ ____
ROOT
ATOM      1  N   UNL     1     -59.352 -43.695 -62.389  0.00  0.00    +0.000 NA
ATOM      2  N   UNL     1     -58.344 -42.314 -59.280  0.00  0.00    +0.000 NA
ATOM      3  C   UNL     1     -59.602 -43.338 -61.153  0.00  0.00    +0.000 C 
ATOM      4  C   UNL     1     -58.403 -42.645 -60.531  0.00  0.00    +0.000 C 
ATOM      5  C   UNL     1     -57.434 -42.568 -61.616  0.00  0.00    +0.000 A 
ATOM      6  C   UNL     1     -58.059 -43.225 -62.676  0.00  0.00    +0.000 A 
ATOM      7  C   UNL     1     -56.163 -42.032 -61.720  0.00  0.00    +0.000 A 
ATOM      8  C   UNL     1     -57.408 -43.362 -63.889  0.00  0.00    +0.000 A 
ATOM      9  C   UNL     1     -55.504 -42.169 -62.945  0.00  0.00    +0.000 A 
ATOM     10  C   UNL     1     -56.121 -42.829 -64.021  0.00  0.00    +0.000 A 
ENDROOT
BRANCH   3  12
ATOM     11  N   UNL     1     -62.806 -43.388 -59.455  0.00  0.00    +0.000 N 
ATOM     12  C   UNL     1     -60.879 -43.633 -60.547  0.00  0.00    +0.000 A 
ATOM     13  C   UNL     1     -61.570 -44.891 -60.533  0.00  0.00    +0.000 A 
ATOM     14  C   UNL     1     -62.763 -44.709 -59.833  0.00  0.00    +0.000 A 
ATOM     15  C   UNL     1     -61.692 -42.722 -59.895  0.00  0.00    +0.000 A 
ATOM     16  C   UNL     1     -61.286 -46.177 -61.040  0.00  0.00    +0.000 A 
ATOM     17  C   UNL     1     -63.684 -45.740 -59.616  0.00  0.00    +0.000 A 
ATOM     18  C   UNL     1     -62.195 -47.221 -60.833  0.00  0.00    +0.000 A 
ATOM     19  C   UNL     1     -63.376 -47.003 -60.130  0.00  0.00    +0.000 A 
ATOM     20  H   UNL     1     -63.574 -42.976 -58.947  0.00  0.00    +0.000 HD
BRANCH  15  21
ATOM     21  O   UNL     1     -61.540 -41.416 -59.705  0.00  0.00    +0.000 OA
ATOM     22  H   UNL     1     -61.474 -41.214 -58.758  0.00  0.00    +0.000 HD
ENDBRANCH  15  21
ENDBRANCH   3  12
BRANCH   2  23
ATOM     23  O   UNL     1     -57.118 -41.734 -58.944  0.00  0.00    +0.000 OA
BRANCH  23  24
ATOM     24  C   UNL     1     -56.984 -41.757 -57.526  0.00  0.00    +0.000 C 
BRANCH  24  25
ATOM     25  C   UNL     1     -56.823 -43.196 -57.056  0.00  0.00    +0.000 C 
BRANCH  25  26
ATOM     26  C   UNL     1     -57.853 -43.633 -56.015  0.00  0.00    +0.000 C 
BRANCH  26  27
ATOM     27  O   UNL     1     -58.632 -44.696 -56.585  0.00  0.00    +0.000 OA
ATOM     28  H   UNL     1     -58.542 -45.432 -55.948  0.00  0.00    +0.000 HD
ENDBRANCH  26  27
BRANCH  26  29
ATOM     29  C   UNL     1     -57.241 -44.138 -54.705  0.00  0.00    +0.000 C 
BRANCH  29  30
ATOM     30  O   UNL     1     -57.893 -45.362 -54.350  0.00  0.00    +0.000 OA
ATOM     31  H   UNL     1     -58.160 -45.274 -53.418  0.00  0.00    +0.000 HD
ENDBRANCH  29  30
ENDBRANCH  26  29
ENDBRANCH  25  26
ENDBRANCH  24  25
ENDBRANCH  23  24
ENDBRANCH   2  23
TORSDOF 9
ENDMDL
