MODEL 1
REMARK VINA RESULT:      -5.2      0.000      0.000
REMARK  Name = IPA3.pdbqt.pdb
REMARK  5 active torsions:
REMARK  status: ('A' for Active; 'I' for Inactive)
REMARK    1  A    between atoms: S_1  and  S_2
REMARK    2  A    between atoms: S_1  and  C_15
REMARK    3  A    between atoms: S_2  and  C_3
REMARK    4  A    between atoms: C_10  and  O_13
REMARK    5  A    between atoms: C_22  and  O_25
REMARK                            x       y       z     vdW  Elec       q    Type
REMARK                         _______ _______ _______ _____ _____    ______ ____
ROOT
ATOM      1  S   UNL     1     -64.699 -44.308 -55.910  0.00  0.00    +0.000 S 
ENDROOT
BRANCH   1   2
ATOM      2  C   UNL     1     -63.294 -43.565 -56.753  0.00  0.00    +0.000 A 
ATOM      3  C   UNL     1     -63.395 -43.127 -58.096  0.00  0.00    +0.000 A 
ATOM      4  C   UNL     1     -62.270 -42.523 -58.705  0.00  0.00    +0.000 A 
ATOM      5  C   UNL     1     -64.566 -43.244 -58.866  0.00  0.00    +0.000 A 
ATOM      6  C   UNL     1     -61.077 -42.379 -58.002  0.00  0.00    +0.000 A 
ATOM      7  C   UNL     1     -62.340 -42.058 -60.018  0.00  0.00    +0.000 A 
ATOM      8  C   UNL     1     -60.975 -42.825 -56.691  0.00  0.00    +0.000 A 
ATOM      9  C   UNL     1     -62.076 -43.411 -56.073  0.00  0.00    +0.000 A 
ATOM     10  C   UNL     1     -63.516 -42.181 -60.751  0.00  0.00    +0.000 A 
ATOM     11  C   UNL     1     -64.631 -42.776 -60.176  0.00  0.00    +0.000 A 
BRANCH   9  12
ATOM     12  O   UNL     1     -61.903 -43.817 -54.776  0.00  0.00    +0.000 OA
ATOM     13  H   UNL     1     -62.782 -43.851 -54.357  0.00  0.00    +0.000 HD
ENDBRANCH   9  12
ENDBRANCH   1   2
BRANCH   1  14
ATOM     14  S   UNL     1     -64.206 -46.308 -55.963  0.00  0.00    +0.000 S 
BRANCH  14  15
ATOM     15  C   UNL     1     -64.504 -46.710 -57.691  0.00  0.00    +0.000 A 
ATOM     16  C   UNL     1     -63.458 -46.662 -58.643  0.00  0.00    +0.000 A 
ATOM     17  C   UNL     1     -63.736 -47.014 -59.985  0.00  0.00    +0.000 A 
ATOM     18  C   UNL     1     -62.137 -46.292 -58.331  0.00  0.00    +0.000 A 
ATOM     19  C   UNL     1     -65.023 -47.385 -60.366  0.00  0.00    +0.000 A 
ATOM     20  C   UNL     1     -62.726 -47.001 -60.946  0.00  0.00    +0.000 A 
ATOM     21  C   UNL     1     -66.052 -47.417 -59.432  0.00  0.00    +0.000 A 
ATOM     22  C   UNL     1     -65.792 -47.083 -58.108  0.00  0.00    +0.000 A 
ATOM     23  C   UNL     1     -61.426 -46.639 -60.602  0.00  0.00    +0.000 A 
ATOM     24  C   UNL     1     -61.131 -46.282 -59.293  0.00  0.00    +0.000 A 
BRANCH  22  25
ATOM     25  O   UNL     1     -66.853 -47.147 -57.244  0.00  0.00    +0.000 OA
ATOM     26  H   UNL     1     -66.644 -47.818 -56.568  0.00  0.00    +0.000 HD
ENDBRANCH  22  25
ENDBRANCH  14  15
ENDBRANCH   1  14
TORSDOF 5
ENDMDL
MODEL 2
REMARK VINA RESULT:      -5.1     11.651     13.926
REMARK  Name = IPA3.pdbqt.pdb
REMARK  5 active torsions:
REMARK  status: ('A' for Active; 'I' for Inactive)
REMARK    1  A    between atoms: S_1  and  S_2
REMARK    2  A    between atoms: S_1  and  C_15
REMARK    3  A    between atoms: S_2  and  C_3
REMARK    4  A    between atoms: C_10  and  O_13
REMARK    5  A    between atoms: C_22  and  O_25
REMARK                            x       y       z     vdW  Elec       q    Type
REMARK                         _______ _______ _______ _____ _____    ______ ____
ROOT
ATOM      1  S   UNL     1     -60.452 -60.135 -58.453  0.00  0.00    +0.000 S 
ENDROOT
BRANCH   1   2
ATOM      2  C   UNL     1     -60.503 -58.561 -57.583  0.00  0.00    +0.000 A 
ATOM      3  C   UNL     1     -59.322 -57.968 -57.073  0.00  0.00    +0.000 A 
ATOM      4  C   UNL     1     -59.411 -56.716 -56.421  0.00  0.00    +0.000 A 
ATOM      5  C   UNL     1     -58.048 -58.551 -57.188  0.00  0.00    +0.000 A 
ATOM      6  C   UNL     1     -60.643 -56.084 -56.267  0.00  0.00    +0.000 A 
ATOM      7  C   UNL     1     -58.267 -56.091 -55.927  0.00  0.00    +0.000 A 
ATOM      8  C   UNL     1     -61.802 -56.676 -56.754  0.00  0.00    +0.000 A 
ATOM      9  C   UNL     1     -61.730 -57.902 -57.407  0.00  0.00    +0.000 A 
ATOM     10  C   UNL     1     -57.018 -56.690 -56.065  0.00  0.00    +0.000 A 
ATOM     11  C   UNL     1     -56.907 -57.922 -56.695  0.00  0.00    +0.000 A 
BRANCH   9  12
ATOM     12  O   UNL     1     -62.912 -58.418 -57.868  0.00  0.00    +0.000 OA
ATOM     13  H   UNL     1     -63.295 -58.963 -57.157  0.00  0.00    +0.000 HD
ENDBRANCH   9  12
ENDBRANCH   1   2
BRANCH   1  14
ATOM     14  S   UNL     1     -60.637 -59.532 -60.414  0.00  0.00    +0.000 S 
BRANCH  14  15
ATOM     15  C   UNL     1     -59.222 -58.437 -60.594  0.00  0.00    +0.000 A 
ATOM     16  C   UNL     1     -59.373 -57.031 -60.534  0.00  0.00    +0.000 A 
ATOM     17  C   UNL     1     -58.225 -56.212 -60.652  0.00  0.00    +0.000 A 
ATOM     18  C   UNL     1     -60.611 -56.389 -60.348  0.00  0.00    +0.000 A 
ATOM     19  C   UNL     1     -56.969 -56.781 -60.843  0.00  0.00    +0.000 A 
ATOM     20  C   UNL     1     -58.332 -54.824 -60.575  0.00  0.00    +0.000 A 
ATOM     21  C   UNL     1     -56.824 -58.161 -60.917  0.00  0.00    +0.000 A 
ATOM     22  C   UNL     1     -57.941 -58.979 -60.792  0.00  0.00    +0.000 A 
ATOM     23  C   UNL     1     -59.572 -54.219 -60.381  0.00  0.00    +0.000 A 
ATOM     24  C   UNL     1     -60.714 -55.002 -60.270  0.00  0.00    +0.000 A 
BRANCH  22  25
ATOM     25  O   UNL     1     -57.719 -60.329 -60.866  0.00  0.00    +0.000 OA
ATOM     26  H   UNL     1     -57.612 -60.661 -59.955  0.00  0.00    +0.000 HD
ENDBRANCH  22  25
ENDBRANCH  14  15
ENDBRANCH   1  14
TORSDOF 5
ENDMDL
MODEL 3
REMARK VINA RESULT:      -5.0     30.473     32.356
REMARK  Name = IPA3.pdbqt.pdb
REMARK  5 active torsions:
REMARK  status: ('A' for Active; 'I' for Inactive)
REMARK    1  A    between atoms: S_1  and  S_2
REMARK    2  A    between atoms: S_1  and  C_15
REMARK    3  A    between atoms: S_2  and  C_3
REMARK    4  A    between atoms: C_10  and  O_13
REMARK    5  A    between atoms: C_22  and  O_25
REMARK                            x       y       z     vdW  Elec       q    Type
REMARK                         _______ _______ _______ _____ _____    ______ ____
ROOT
ATOM      1  S   UNL     1     -71.702 -57.679 -29.539  0.00  0.00    +0.000 S 
ENDROOT
BRANCH   1   2
ATOM      2  C   UNL     1     -72.713 -57.091 -28.173  0.00  0.00    +0.000 A 
ATOM      3  C   UNL     1     -72.503 -57.559 -26.853  0.00  0.00    +0.000 A 
ATOM      4  C   UNL     1     -73.307 -57.043 -25.808  0.00  0.00    +0.000 A 
ATOM      5  C   UNL     1     -71.523 -58.507 -26.511  0.00  0.00    +0.000 A 
ATOM      6  C   UNL     1     -74.300 -56.105 -26.077  0.00  0.00    +0.000 A 
ATOM      7  C   UNL     1     -73.113 -57.463 -24.492  0.00  0.00    +0.000 A 
ATOM      8  C   UNL     1     -74.514 -55.660 -27.375  0.00  0.00    +0.000 A 
ATOM      9  C   UNL     1     -73.726 -56.148 -28.412  0.00  0.00    +0.000 A 
ATOM     10  C   UNL     1     -72.128 -58.397 -24.185  0.00  0.00    +0.000 A 
ATOM     11  C   UNL     1     -71.332 -58.922 -25.195  0.00  0.00    +0.000 A 
BRANCH   9  12
ATOM     12  O   UNL     1     -73.989 -55.656 -29.662  0.00  0.00    +0.000 OA
ATOM     13  H   UNL     1     -73.603 -56.272 -30.311  0.00  0.00    +0.000 HD
ENDBRANCH   9  12
ENDBRANCH   1   2
BRANCH   1  14
ATOM     14  S   UNL     1     -70.554 -56.019 -29.953  0.00  0.00    +0.000 S 
BRANCH  14  15
ATOM     15  C   UNL     1     -70.587 -55.993 -31.751  0.00  0.00    +0.000 A 
ATOM     16  C   UNL     1     -69.625 -56.700 -32.511  0.00  0.00    +0.000 A 
ATOM     17  C   UNL     1     -69.710 -56.672 -33.922  0.00  0.00    +0.000 A 
ATOM     18  C   UNL     1     -68.581 -57.451 -31.939  0.00  0.00    +0.000 A 
ATOM     19  C   UNL     1     -70.714 -55.945 -34.555  0.00  0.00    +0.000 A 
ATOM     20  C   UNL     1     -68.793 -57.376 -34.703  0.00  0.00    +0.000 A 
ATOM     21  C   UNL     1     -71.649 -55.238 -33.809  0.00  0.00    +0.000 A 
ATOM     22  C   UNL     1     -71.585 -55.265 -32.420  0.00  0.00    +0.000 A 
ATOM     23  C   UNL     1     -67.777 -58.118 -34.105  0.00  0.00    +0.000 A 
ATOM     24  C   UNL     1     -67.669 -58.154 -32.721  0.00  0.00    +0.000 A 
BRANCH  22  25
ATOM     25  O   UNL     1     -72.545 -54.552 -31.752  0.00  0.00    +0.000 OA
ATOM     26  H   UNL     1     -72.873 -53.860 -32.356  0.00  0.00    +0.000 HD
ENDBRANCH  22  25
ENDBRANCH  14  15
ENDBRANCH   1  14
TORSDOF 5
ENDMDL
MODEL 4
REMARK VINA RESULT:      -5.0     30.757     32.645
REMARK  Name = IPA3.pdbqt.pdb
REMARK  5 active torsions:
REMARK  status: ('A' for Active; 'I' for Inactive)
REMARK    1  A    between atoms: S_1  and  S_2
REMARK    2  A    between atoms: S_1  and  C_15
REMARK    3  A    between atoms: S_2  and  C_3
REMARK    4  A    between atoms: C_10  and  O_13
REMARK    5  A    between atoms: C_22  and  O_25
REMARK                            x       y       z     vdW  Elec       q    Type
REMARK                         _______ _______ _______ _____ _____    ______ ____
ROOT
ATOM      1  S   UNL     1     -70.718 -56.119 -29.665  0.00  0.00    +0.000 S 
ENDROOT
BRANCH   1   2
ATOM      2  C   UNL     1     -70.804 -55.950 -31.454  0.00  0.00    +0.000 A 
ATOM      3  C   UNL     1     -69.858 -56.584 -32.295  0.00  0.00    +0.000 A 
ATOM      4  C   UNL     1     -69.986 -56.443 -33.697  0.00  0.00    +0.000 A 
ATOM      5  C   UNL     1     -68.793 -57.367 -31.815  0.00  0.00    +0.000 A 
ATOM      6  C   UNL     1     -71.015 -55.679 -34.240  0.00  0.00    +0.000 A 
ATOM      7  C   UNL     1     -69.087 -57.073 -34.557  0.00  0.00    +0.000 A 
ATOM      8  C   UNL     1     -71.932 -55.044 -33.412  0.00  0.00    +0.000 A 
ATOM      9  C   UNL     1     -71.826 -55.181 -32.032  0.00  0.00    +0.000 A 
ATOM     10  C   UNL     1     -68.047 -57.849 -34.051  0.00  0.00    +0.000 A 
ATOM     11  C   UNL     1     -67.898 -57.995 -32.678  0.00  0.00    +0.000 A 
BRANCH   9  12
ATOM     12  O   UNL     1     -72.772 -54.535 -31.281  0.00  0.00    +0.000 OA
ATOM     13  H   UNL     1     -72.406 -54.410 -30.386  0.00  0.00    +0.000 HD
ENDBRANCH   9  12
ENDBRANCH   1   2
BRANCH   1  14
ATOM     14  S   UNL     1     -72.082 -57.625 -29.323  0.00  0.00    +0.000 S 
BRANCH  14  15
ATOM     15  C   UNL     1     -72.908 -57.037 -27.838  0.00  0.00    +0.000 A 
ATOM     16  C   UNL     1     -72.616 -57.594 -26.569  0.00  0.00    +0.000 A 
ATOM     17  C   UNL     1     -73.272 -57.078 -25.427  0.00  0.00    +0.000 A 
ATOM     18  C   UNL     1     -71.691 -58.635 -26.371  0.00  0.00    +0.000 A 
ATOM     19  C   UNL     1     -74.203 -56.051 -25.550  0.00  0.00    +0.000 A 
ATOM     20  C   UNL     1     -72.993 -57.586 -24.159  0.00  0.00    +0.000 A 
ATOM     21  C   UNL     1     -74.501 -55.516 -26.799  0.00  0.00    +0.000 A 
ATOM     22  C   UNL     1     -73.857 -56.005 -27.929  0.00  0.00    +0.000 A 
ATOM     23  C   UNL     1     -72.064 -58.610 -23.995  0.00  0.00    +0.000 A 
ATOM     24  C   UNL     1     -71.413 -59.138 -25.103  0.00  0.00    +0.000 A 
BRANCH  22  25
ATOM     25  O   UNL     1     -74.194 -55.422 -29.122  0.00  0.00    +0.000 OA
ATOM     26  H   UNL     1     -74.448 -54.499 -28.939  0.00  0.00    +0.000 HD
ENDBRANCH  22  25
ENDBRANCH  14  15
ENDBRANCH   1  14
TORSDOF 5
ENDMDL
MODEL 5
REMARK VINA RESULT:      -4.9     19.912     21.824
REMARK  Name = IPA3.pdbqt.pdb
REMARK  5 active torsions:
REMARK  status: ('A' for Active; 'I' for Inactive)
REMARK    1  A    between atoms: S_1  and  S_2
REMARK    2  A    between atoms: S_1  and  C_15
REMARK    3  A    between atoms: S_2  and  C_3
REMARK    4  A    between atoms: C_10  and  O_13
REMARK    5  A    between atoms: C_22  and  O_25
REMARK                            x       y       z     vdW  Elec       q    Type
REMARK                         _______ _______ _______ _____ _____    ______ ____
ROOT
ATOM      1  S   UNL     1     -68.640 -58.353 -72.406  0.00  0.00    +0.000 S 
ENDROOT
BRANCH   1   2
ATOM      2  C   UNL     1     -67.478 -59.341 -73.359  0.00  0.00    +0.000 A 
ATOM      3  C   UNL     1     -66.450 -60.079 -72.723  0.00  0.00    +0.000 A 
ATOM      4  C   UNL     1     -65.579 -60.863 -73.515  0.00  0.00    +0.000 A 
ATOM      5  C   UNL     1     -66.250 -60.092 -71.331  0.00  0.00    +0.000 A 
ATOM      6  C   UNL     1     -65.717 -60.894 -74.901  0.00  0.00    +0.000 A 
ATOM      7  C   UNL     1     -64.571 -61.622 -72.921  0.00  0.00    +0.000 A 
ATOM      8  C   UNL     1     -66.715 -60.155 -75.524  0.00  0.00    +0.000 A 
ATOM      9  C   UNL     1     -67.587 -59.388 -74.758  0.00  0.00    +0.000 A 
ATOM     10  C   UNL     1     -64.404 -61.619 -71.539  0.00  0.00    +0.000 A 
ATOM     11  C   UNL     1     -65.243 -60.853 -70.742  0.00  0.00    +0.000 A 
BRANCH   9  12
ATOM     12  O   UNL     1     -68.552 -58.696 -75.442  0.00  0.00    +0.000 OA
ATOM     13  H   UNL     1     -68.188 -58.467 -76.317  0.00  0.00    +0.000 HD
ENDBRANCH   9  12
ENDBRANCH   1   2
BRANCH   1  14
ATOM     14  S   UNL     1     -70.171 -59.697 -72.096  0.00  0.00    +0.000 S 
BRANCH  14  15
ATOM     15  C   UNL     1     -69.521 -60.682 -70.739  0.00  0.00    +0.000 A 
ATOM     16  C   UNL     1     -68.979 -61.971 -70.964  0.00  0.00    +0.000 A 
ATOM     17  C   UNL     1     -68.455 -62.695 -69.868  0.00  0.00    +0.000 A 
ATOM     18  C   UNL     1     -68.919 -62.578 -72.232  0.00  0.00    +0.000 A 
ATOM     19  C   UNL     1     -68.487 -62.156 -68.585  0.00  0.00    +0.000 A 
ATOM     20  C   UNL     1     -67.893 -63.957 -70.055  0.00  0.00    +0.000 A 
ATOM     21  C   UNL     1     -69.033 -60.897 -68.363  0.00  0.00    +0.000 A 
ATOM     22  C   UNL     1     -69.543 -60.169 -69.432  0.00  0.00    +0.000 A 
ATOM     23  C   UNL     1     -67.839 -64.527 -71.325  0.00  0.00    +0.000 A 
ATOM     24  C   UNL     1     -68.355 -63.838 -72.415  0.00  0.00    +0.000 A 
BRANCH  22  25
ATOM     25  O   UNL     1     -70.056 -58.933 -69.137  0.00  0.00    +0.000 OA
ATOM     26  H   UNL     1     -71.025 -58.986 -69.229  0.00  0.00    +0.000 HD
ENDBRANCH  22  25
ENDBRANCH  14  15
ENDBRANCH   1  14
TORSDOF 5
ENDMDL
MODEL 6
REMARK VINA RESULT:      -4.9     16.865     19.111
REMARK  Name = IPA3.pdbqt.pdb
REMARK  5 active torsions:
REMARK  status: ('A' for Active; 'I' for Inactive)
REMARK    1  A    between atoms: S_1  and  S_2
REMARK    2  A    between atoms: S_1  and  C_15
REMARK    3  A    between atoms: S_2  and  C_3
REMARK    4  A    between atoms: C_10  and  O_13
REMARK    5  A    between atoms: C_22  and  O_25
REMARK                            x       y       z     vdW  Elec       q    Type
REMARK                         _______ _______ _______ _____ _____    ______ ____
ROOT
ATOM      1  S   UNL     1     -54.423 -61.162 -67.919  0.00  0.00    +0.000 S 
ENDROOT
BRANCH   1   2
ATOM      2  C   UNL     1     -54.608 -59.458 -68.465  0.00  0.00    +0.000 A 
ATOM      3  C   UNL     1     -53.581 -58.808 -69.193  0.00  0.00    +0.000 A 
ATOM      4  C   UNL     1     -53.787 -57.476 -69.625  0.00  0.00    +0.000 A 
ATOM      5  C   UNL     1     -52.360 -59.418 -69.528  0.00  0.00    +0.000 A 
ATOM      6  C   UNL     1     -54.972 -56.809 -69.324  0.00  0.00    +0.000 A 
ATOM      7  C   UNL     1     -52.808 -56.812 -70.363  0.00  0.00    +0.000 A 
ATOM      8  C   UNL     1     -55.970 -57.444 -68.596  0.00  0.00    +0.000 A 
ATOM      9  C   UNL     1     -55.788 -58.757 -68.173  0.00  0.00    +0.000 A 
ATOM     10  C   UNL     1     -51.612 -57.447 -70.686  0.00  0.00    +0.000 A 
ATOM     11  C   UNL     1     -51.386 -58.751 -70.267  0.00  0.00    +0.000 A 
BRANCH   9  12
ATOM     12  O   UNL     1     -56.820 -59.320 -67.470  0.00  0.00    +0.000 OA
ATOM     13  H   UNL     1     -56.716 -59.065 -66.535  0.00  0.00    +0.000 HD
ENDBRANCH   9  12
ENDBRANCH   1   2
BRANCH   1  14
ATOM     14  S   UNL     1     -53.157 -60.947 -66.307  0.00  0.00    +0.000 S 
BRANCH  14  15
ATOM     15  C   UNL     1     -53.969 -59.638 -65.378  0.00  0.00    +0.000 A 
ATOM     16  C   UNL     1     -53.486 -58.308 -65.414  0.00  0.00    +0.000 A 
ATOM     17  C   UNL     1     -54.176 -57.309 -64.688  0.00  0.00    +0.000 A 
ATOM     18  C   UNL     1     -52.353 -57.911 -66.147  0.00  0.00    +0.000 A 
ATOM     19  C   UNL     1     -55.302 -57.632 -63.937  0.00  0.00    +0.000 A 
ATOM     20  C   UNL     1     -53.743 -55.984 -64.717  0.00  0.00    +0.000 A 
ATOM     21  C   UNL     1     -55.766 -58.942 -63.891  0.00  0.00    +0.000 A 
ATOM     22  C   UNL     1     -55.105 -59.933 -64.607  0.00  0.00    +0.000 A 
ATOM     23  C   UNL     1     -52.623 -55.622 -65.461  0.00  0.00    +0.000 A 
ATOM     24  C   UNL     1     -51.924 -56.587 -66.176  0.00  0.00    +0.000 A 
BRANCH  22  25
ATOM     25  O   UNL     1     -55.625 -61.197 -64.521  0.00  0.00    +0.000 OA
ATOM     26  H   UNL     1     -55.416 -61.543 -63.633  0.00  0.00    +0.000 HD
ENDBRANCH  22  25
ENDBRANCH  14  15
ENDBRANCH   1  14
TORSDOF 5
ENDMDL
MODEL 7
REMARK VINA RESULT:      -4.9     19.458     21.616
REMARK  Name = IPA3.pdbqt.pdb
REMARK  5 active torsions:
REMARK  status: ('A' for Active; 'I' for Inactive)
REMARK    1  A    between atoms: S_1  and  S_2
REMARK    2  A    between atoms: S_1  and  C_15
REMARK    3  A    between atoms: S_2  and  C_3
REMARK    4  A    between atoms: C_10  and  O_13
REMARK    5  A    between atoms: C_22  and  O_25
REMARK                            x       y       z     vdW  Elec       q    Type
REMARK                         _______ _______ _______ _____ _____    ______ ____
ROOT
ATOM      1  S   UNL     1     -70.125 -59.891 -71.784  0.00  0.00    +0.000 S 
ENDROOT
BRANCH   1   2
ATOM      2  C   UNL     1     -69.430 -60.646 -70.306  0.00  0.00    +0.000 A 
ATOM      3  C   UNL     1     -68.789 -61.908 -70.362  0.00  0.00    +0.000 A 
ATOM      4  C   UNL     1     -68.234 -62.446 -69.177  0.00  0.00    +0.000 A 
ATOM      5  C   UNL     1     -68.656 -62.661 -71.542  0.00  0.00    +0.000 A 
ATOM      6  C   UNL     1     -68.333 -61.756 -67.972  0.00  0.00    +0.000 A 
ATOM      7  C   UNL     1     -67.574 -63.675 -69.199  0.00  0.00    +0.000 A 
ATOM      8  C   UNL     1     -68.977 -60.526 -67.917  0.00  0.00    +0.000 A 
ATOM      9  C   UNL     1     -69.519 -59.978 -69.075  0.00  0.00    +0.000 A 
ATOM     10  C   UNL     1     -67.452 -64.392 -70.385  0.00  0.00    +0.000 A 
ATOM     11  C   UNL     1     -67.995 -63.886 -71.559  0.00  0.00    +0.000 A 
BRANCH   9  12
ATOM     12  O   UNL     1     -70.129 -58.759 -68.945  0.00  0.00    +0.000 OA
ATOM     13  H   UNL     1     -70.541 -58.540 -69.800  0.00  0.00    +0.000 HD
ENDBRANCH   9  12
ENDBRANCH   1   2
BRANCH   1  14
ATOM     14  S   UNL     1     -68.713 -58.455 -72.220  0.00  0.00    +0.000 S 
BRANCH  14  15
ATOM     15  C   UNL     1     -67.558 -59.379 -73.242  0.00  0.00    +0.000 A 
ATOM     16  C   UNL     1     -66.482 -60.096 -72.666  0.00  0.00    +0.000 A 
ATOM     17  C   UNL     1     -65.618 -60.831 -73.511  0.00  0.00    +0.000 A 
ATOM     18  C   UNL     1     -66.225 -60.134 -71.283  0.00  0.00    +0.000 A 
ATOM     19  C   UNL     1     -65.811 -60.834 -74.889  0.00  0.00    +0.000 A 
ATOM     20  C   UNL     1     -64.561 -61.568 -72.976  0.00  0.00    +0.000 A 
ATOM     21  C   UNL     1     -66.858 -60.116 -75.455  0.00  0.00    +0.000 A 
ATOM     22  C   UNL     1     -67.722 -59.398 -74.637  0.00  0.00    +0.000 A 
ATOM     23  C   UNL     1     -64.339 -61.593 -71.602  0.00  0.00    +0.000 A 
ATOM     24  C   UNL     1     -65.171 -60.873 -70.753  0.00  0.00    +0.000 A 
BRANCH  22  25
ATOM     25  O   UNL     1     -68.736 -58.724 -75.266  0.00  0.00    +0.000 OA
ATOM     26  H   UNL     1     -68.888 -57.895 -74.775  0.00  0.00    +0.000 HD
ENDBRANCH  22  25
ENDBRANCH  14  15
ENDBRANCH   1  14
TORSDOF 5
ENDMDL
MODEL 8
REMARK VINA RESULT:      -4.8     11.533     13.616
REMARK  Name = IPA3.pdbqt.pdb
REMARK  5 active torsions:
REMARK  status: ('A' for Active; 'I' for Inactive)
REMARK    1  A    between atoms: S_1  and  S_2
REMARK    2  A    between atoms: S_1  and  C_15
REMARK    3  A    between atoms: S_2  and  C_3
REMARK    4  A    between atoms: C_10  and  O_13
REMARK    5  A    between atoms: C_22  and  O_25
REMARK                            x       y       z     vdW  Elec       q    Type
REMARK                         _______ _______ _______ _____ _____    ______ ____
ROOT
ATOM      1  S   UNL     1     -59.783 -60.098 -58.405  0.00  0.00    +0.000 S 
ENDROOT
BRANCH   1   2
ATOM      2  C   UNL     1     -59.598 -58.510 -57.579  0.00  0.00    +0.000 A 
ATOM      3  C   UNL     1     -60.724 -57.711 -57.268  0.00  0.00    +0.000 A 
ATOM      4  C   UNL     1     -60.528 -56.484 -56.592  0.00  0.00    +0.000 A 
ATOM      5  C   UNL     1     -62.046 -58.075 -57.581  0.00  0.00    +0.000 A 
ATOM      6  C   UNL     1     -59.245 -56.060 -56.254  0.00  0.00    +0.000 A 
ATOM      7  C   UNL     1     -61.615 -55.682 -56.248  0.00  0.00    +0.000 A 
ATOM      8  C   UNL     1     -58.140 -56.838 -56.576  0.00  0.00    +0.000 A 
ATOM      9  C   UNL     1     -58.317 -58.052 -57.230  0.00  0.00    +0.000 A 
ATOM     10  C   UNL     1     -62.913 -56.074 -56.565  0.00  0.00    +0.000 A 
ATOM     11  C   UNL     1     -63.129 -57.272 -57.234  0.00  0.00    +0.000 A 
BRANCH   9  12
ATOM     12  O   UNL     1     -57.182 -58.769 -57.505  0.00  0.00    +0.000 OA
ATOM     13  H   UNL     1     -56.542 -58.595 -56.791  0.00  0.00    +0.000 HD
ENDBRANCH   9  12
ENDBRANCH   1   2
BRANCH   1  14
ATOM     14  S   UNL     1     -60.208 -59.515 -60.335  0.00  0.00    +0.000 S 
BRANCH  14  15
ATOM     15  C   UNL     1     -58.937 -58.277 -60.630  0.00  0.00    +0.000 A 
ATOM     16  C   UNL     1     -59.239 -56.895 -60.590  0.00  0.00    +0.000 A 
ATOM     17  C   UNL     1     -58.199 -55.960 -60.801  0.00  0.00    +0.000 A 
ATOM     18  C   UNL     1     -60.527 -56.387 -60.338  0.00  0.00    +0.000 A 
ATOM     19  C   UNL     1     -56.902 -56.392 -61.060  0.00  0.00    +0.000 A 
ATOM     20  C   UNL     1     -58.454 -54.590 -60.746  0.00  0.00    +0.000 A 
ATOM     21  C   UNL     1     -56.609 -57.750 -61.115  0.00  0.00    +0.000 A 
ATOM     22  C   UNL     1     -57.619 -58.681 -60.899  0.00  0.00    +0.000 A 
ATOM     23  C   UNL     1     -59.738 -54.119 -60.485  0.00  0.00    +0.000 A 
ATOM     24  C   UNL     1     -60.777 -55.019 -60.282  0.00  0.00    +0.000 A 
BRANCH  22  25
ATOM     25  O   UNL     1     -57.254 -60.000 -60.959  0.00  0.00    +0.000 OA
ATOM     26  H   UNL     1     -57.054 -60.293 -60.050  0.00  0.00    +0.000 HD
ENDBRANCH  22  25
ENDBRANCH  14  15
ENDBRANCH   1  14
TORSDOF 5
ENDMDL
MODEL 9
REMARK VINA RESULT:      -4.8     39.388     41.657
REMARK  Name = IPA3.pdbqt.pdb
REMARK  5 active torsions:
REMARK  status: ('A' for Active; 'I' for Inactive)
REMARK    1  A    between atoms: S_1  and  S_2
REMARK    2  A    between atoms: S_1  and  C_15
REMARK    3  A    between atoms: S_2  and  C_3
REMARK    4  A    between atoms: C_10  and  O_13
REMARK    5  A    between atoms: C_22  and  O_25
REMARK                            x       y       z     vdW  Elec       q    Type
REMARK                         _______ _______ _______ _____ _____    ______ ____
ROOT
ATOM      1  S   UNL     1     -45.054 -60.017 -88.911  0.00  0.00    +0.000 S 
ENDROOT
BRANCH   1   2
ATOM      2  C   UNL     1     -43.691 -61.181 -88.759  0.00  0.00    +0.000 A 
ATOM      3  C   UNL     1     -42.513 -61.033 -89.529  0.00  0.00    +0.000 A 
ATOM      4  C   UNL     1     -41.458 -61.959 -89.352  0.00  0.00    +0.000 A 
ATOM      5  C   UNL     1     -42.319 -59.999 -90.462  0.00  0.00    +0.000 A 
ATOM      6  C   UNL     1     -41.583 -63.010 -88.448  0.00  0.00    +0.000 A 
ATOM      7  C   UNL     1     -40.273 -61.830 -90.076  0.00  0.00    +0.000 A 
ATOM      8  C   UNL     1     -42.747 -63.163 -87.705  0.00  0.00    +0.000 A 
ATOM      9  C   UNL     1     -43.790 -62.255 -87.860  0.00  0.00    +0.000 A 
ATOM     10  C   UNL     1     -40.109 -60.789 -90.986  0.00  0.00    +0.000 A 
ATOM     11  C   UNL     1     -41.133 -59.873 -91.181  0.00  0.00    +0.000 A 
BRANCH   9  12
ATOM     12  O   UNL     1     -44.901 -62.465 -87.087  0.00  0.00    +0.000 OA
ATOM     13  H   UNL     1     -44.764 -63.291 -86.588  0.00  0.00    +0.000 HD
ENDBRANCH   9  12
ENDBRANCH   1   2
BRANCH   1  14
ATOM     14  S   UNL     1     -46.329 -61.032 -90.173  0.00  0.00    +0.000 S 
BRANCH  14  15
ATOM     15  C   UNL     1     -45.507 -60.830 -91.760  0.00  0.00    +0.000 A 
ATOM     16  C   UNL     1     -44.637 -61.826 -92.265  0.00  0.00    +0.000 A 
ATOM     17  C   UNL     1     -44.036 -61.633 -93.531  0.00  0.00    +0.000 A 
ATOM     18  C   UNL     1     -44.339 -63.018 -91.580  0.00  0.00    +0.000 A 
ATOM     19  C   UNL     1     -44.283 -60.474 -94.261  0.00  0.00    +0.000 A 
ATOM     20  C   UNL     1     -43.192 -62.603 -94.071  0.00  0.00    +0.000 A 
ATOM     21  C   UNL     1     -45.125 -59.489 -93.756  0.00  0.00    +0.000 A 
ATOM     22  C   UNL     1     -45.731 -59.669 -92.518  0.00  0.00    +0.000 A 
ATOM     23  C   UNL     1     -42.925 -63.777 -93.372  0.00  0.00    +0.000 A 
ATOM     24  C   UNL     1     -43.498 -63.985 -92.123  0.00  0.00    +0.000 A 
BRANCH  22  25
ATOM     25  O   UNL     1     -46.555 -58.661 -92.091  0.00  0.00    +0.000 OA
ATOM     26  H   UNL     1     -47.442 -59.042 -91.956  0.00  0.00    +0.000 HD
ENDBRANCH  22  25
ENDBRANCH  14  15
ENDBRANCH   1  14
TORSDOF 5
ENDMDL
