MODEL 1
REMARK VINA RESULT:      -6.9      0.000      0.000
REMARK  Name = 
REMARK  8 active torsions:
REMARK  status: ('A' for Active; 'I' for Inactive)
REMARK    1  A    between atoms: O_1  and  C_21
REMARK    2  A    between atoms: O_1  and  C_38
REMARK    3  A    between atoms: O_4  and  C_26
REMARK    4  A    between atoms: N_7  and  C_11
REMARK    5  A    between atoms: C_26  and  C_33
REMARK    6  A    between atoms: C_29  and  C_37
REMARK    7  A    between atoms: C_33  and  C_42
REMARK    8  A    between atoms: C_37  and  C_43
REMARK                            x       y       z     vdW  Elec       q    Type
REMARK                         _______ _______ _______ _____ _____    ______ ____
ROOT
ATOM      1  O   UNL     1     -66.952 -59.359 -36.265  0.00  0.00    +0.000 OA
ATOM      2  O   UNL     1     -67.375 -58.541 -32.154  0.00  0.00    +0.000 OA
ATOM      3  O   UNL     1     -68.191 -59.520 -38.133  0.00  0.00    +0.000 OA
ATOM      4  N   UNL     1     -69.200 -57.199 -32.524  0.00  0.00    +0.000 N 
ATOM      5  N   UNL     1     -72.024 -55.058 -33.077  0.00  0.00    +0.000 NA
ATOM      6  C   UNL     1     -70.062 -56.556 -33.390  0.00  0.00    +0.000 A 
ATOM      7  C   UNL     1     -70.744 -56.027 -31.253  0.00  0.00    +0.000 A 
ATOM      8  C   UNL     1     -69.550 -56.927 -31.127  0.00  0.00    +0.000 C 
ATOM      9  C   UNL     1     -68.844 -57.490 -35.248  0.00  0.00    +0.000 A 
ATOM     10  C   UNL     1     -68.641 -57.595 -36.738  0.00  0.00    +0.000 C 
ATOM     11  C   UNL     1     -71.035 -55.815 -32.596  0.00  0.00    +0.000 A 
ATOM     12  C   UNL     1     -67.999 -58.120 -34.408  0.00  0.00    +0.000 A 
ATOM     13  C   UNL     1     -71.531 -55.419 -30.285  0.00  0.00    +0.000 A 
ATOM     14  C   UNL     1     -69.925 -56.668 -34.714  0.00  0.00    +0.000 A 
ATOM     15  C   UNL     1     -68.152 -57.985 -32.924  0.00  0.00    +0.000 A 
ATOM     16  C   UNL     1     -72.593 -54.587 -30.746  0.00  0.00    +0.000 A 
ATOM     17  C   UNL     1     -66.866 -58.961 -34.881  0.00  0.00    +0.000 C 
ATOM     18  C   UNL     1     -72.790 -54.450 -32.158  0.00  0.00    +0.000 A 
ATOM     19  C   UNL     1     -67.926 -58.918 -37.091  0.00  0.00    +0.000 C 
ATOM     20  C   UNL     1     -74.475 -53.080 -30.394  0.00  0.00    +0.000 A 
ATOM     21  C   UNL     1     -73.463 -53.888 -29.881  0.00  0.00    +0.000 A 
ATOM     22  C   UNL     1     -73.826 -53.651 -32.624  0.00  0.00    +0.000 A 
ATOM     23  C   UNL     1     -74.680 -52.966 -31.759  0.00  0.00    +0.000 A 
ENDROOT
BRANCH  10  24
ATOM     24  O   UNL     1     -69.925 -57.591 -37.379  0.00  0.00    +0.000 OA
ATOM     25  H   UNL     1     -70.587 -57.501 -36.664  0.00  0.00    +0.000 HD
ENDBRANCH  10  24
BRANCH  10  26
ATOM     26  C   UNL     1     -67.818 -56.396 -37.258  0.00  0.00    +0.000 C 
ATOM     27  C   UNL     1     -67.932 -56.154 -38.760  0.00  0.00    +0.000 C 
ENDBRANCH  10  26
BRANCH  13  28
ATOM     28  C   UNL     1     -71.219 -55.630 -28.824  0.00  0.00    +0.000 C 
ATOM     29  C   UNL     1     -71.949 -56.834 -28.248  0.00  0.00    +0.000 C 
ENDBRANCH  13  28
BRANCH  20  30
ATOM     30  O   UNL     1     -75.345 -52.437 -29.513  0.00  0.00    +0.000 OA
BRANCH  30  38
ATOM     31  O   UNL     1     -73.798 -51.089 -28.437  0.00  0.00    +0.000 OA
ATOM     32  N   UNL     1     -75.236 -52.400 -27.205  0.00  0.00    +0.000 N 
ATOM     33  C   UNL     1     -75.529 -54.073 -24.823  0.00  0.00    +0.000 C 
ATOM     34  C   UNL     1     -76.025 -54.508 -26.225  0.00  0.00    +0.000 C 
ATOM     35  C   UNL     1     -74.366 -53.066 -25.008  0.00  0.00    +0.000 C 
ATOM     36  C   UNL     1     -76.356 -53.321 -27.124  0.00  0.00    +0.000 C 
ATOM     37  C   UNL     1     -74.736 -51.911 -25.934  0.00  0.00    +0.000 C 
ATOM     38  C   UNL     1     -74.716 -51.903 -28.391  0.00  0.00    +0.000 C 
BRANCH  33  39
ATOM     39  N   UNL     1     -75.122 -55.244 -23.982  0.00  0.00    +0.000 NA
ATOM     40  C   UNL     1     -73.997 -55.993 -24.581  0.00  0.00    +0.000 C 
ATOM     41  C   UNL     1     -74.783 -54.848 -22.599  0.00  0.00    +0.000 C 
ATOM     42  C   UNL     1     -73.586 -57.212 -23.752  0.00  0.00    +0.000 C 
ATOM     43  C   UNL     1     -74.391 -56.038 -21.720  0.00  0.00    +0.000 C 
ATOM     44  C   UNL     1     -73.241 -56.823 -22.325  0.00  0.00    +0.000 C 
ENDBRANCH  33  39
ENDBRANCH  30  38
ENDBRANCH  20  30
TORSDOF 6
ENDMDL
MODEL 2
REMARK VINA RESULT:      -6.8     29.948     38.630
REMARK  Name = 
REMARK  8 active torsions:
REMARK  status: ('A' for Active; 'I' for Inactive)
REMARK    1  A    between atoms: O_1  and  C_21
REMARK    2  A    between atoms: O_1  and  C_38
REMARK    3  A    between atoms: O_4  and  C_26
REMARK    4  A    between atoms: N_7  and  C_11
REMARK    5  A    between atoms: C_26  and  C_33
REMARK    6  A    between atoms: C_29  and  C_37
REMARK    7  A    between atoms: C_33  and  C_42
REMARK    8  A    between atoms: C_37  and  C_43
REMARK                            x       y       z     vdW  Elec       q    Type
REMARK                         _______ _______ _______ _____ _____    ______ ____
ROOT
ATOM      1  O   UNL     1     -61.171 -56.937 -57.142  0.00  0.00    +0.000 OA
ATOM      2  O   UNL     1     -62.422 -60.459 -59.087  0.00  0.00    +0.000 OA
ATOM      3  O   UNL     1     -59.369 -55.607 -56.966  0.00  0.00    +0.000 OA
ATOM      4  N   UNL     1     -61.006 -60.086 -60.854  0.00  0.00    +0.000 N 
ATOM      5  N   UNL     1     -58.839 -59.502 -63.652  0.00  0.00    +0.000 NA
ATOM      6  C   UNL     1     -60.103 -59.282 -61.519  0.00  0.00    +0.000 A 
ATOM      7  C   UNL     1     -60.364 -61.186 -62.791  0.00  0.00    +0.000 A 
ATOM      8  C   UNL     1     -61.245 -61.334 -61.584  0.00  0.00    +0.000 C 
ATOM      9  C   UNL     1     -60.312 -57.645 -59.764  0.00  0.00    +0.000 A 
ATOM     10  C   UNL     1     -59.953 -56.288 -59.213  0.00  0.00    +0.000 C 
ATOM     11  C   UNL     1     -59.696 -59.969 -62.740  0.00  0.00    +0.000 A 
ATOM     12  C   UNL     1     -61.196 -58.424 -59.109  0.00  0.00    +0.000 A 
ATOM     13  C   UNL     1     -60.149 -62.033 -63.869  0.00  0.00    +0.000 A 
ATOM     14  C   UNL     1     -59.740 -58.093 -61.028  0.00  0.00    +0.000 A 
ATOM     15  C   UNL     1     -61.605 -59.753 -59.667  0.00  0.00    +0.000 A 
ATOM     16  C   UNL     1     -59.255 -61.576 -64.880  0.00  0.00    +0.000 A 
ATOM     17  C   UNL     1     -61.831 -58.025 -57.824  0.00  0.00    +0.000 C 
ATOM     18  C   UNL     1     -58.627 -60.299 -64.710  0.00  0.00    +0.000 A 
ATOM     19  C   UNL     1     -60.127 -56.269 -57.677  0.00  0.00    +0.000 C 
ATOM     20  C   UNL     1     -58.080 -61.809 -67.002  0.00  0.00    +0.000 A 
ATOM     21  C   UNL     1     -58.954 -62.317 -66.044  0.00  0.00    +0.000 A 
ATOM     22  C   UNL     1     -57.745 -59.843 -65.682  0.00  0.00    +0.000 A 
ATOM     23  C   UNL     1     -57.455 -60.585 -66.826  0.00  0.00    +0.000 A 
ENDROOT
BRANCH  10  24
ATOM     24  O   UNL     1     -58.578 -56.016 -59.516  0.00  0.00    +0.000 OA
ATOM     25  H   UNL     1     -58.575 -55.541 -60.371  0.00  0.00    +0.000 HD
ENDBRANCH  10  24
BRANCH  10  26
ATOM     26  C   UNL     1     -60.833 -55.194 -59.855  0.00  0.00    +0.000 C 
ATOM     27  C   UNL     1     -60.075 -54.215 -60.748  0.00  0.00    +0.000 C 
ENDBRANCH  10  26
BRANCH  13  28
ATOM     28  C   UNL     1     -60.878 -63.352 -63.943  0.00  0.00    +0.000 C 
ATOM     29  C   UNL     1     -62.256 -63.212 -64.572  0.00  0.00    +0.000 C 
ENDBRANCH  13  28
BRANCH  20  30
ATOM     30  O   UNL     1     -57.770 -62.584 -68.120  0.00  0.00    +0.000 OA
BRANCH  30  38
ATOM     31  O   UNL     1     -56.518 -64.226 -67.069  0.00  0.00    +0.000 OA
ATOM     32  N   UNL     1     -58.259 -64.818 -68.457  0.00  0.00    +0.000 N 
ATOM     33  C   UNL     1     -59.200 -66.728 -70.463  0.00  0.00    +0.000 C 
ATOM     34  C   UNL     1     -59.329 -65.194 -70.634  0.00  0.00    +0.000 C 
ATOM     35  C   UNL     1     -58.002 -67.014 -69.521  0.00  0.00    +0.000 C 
ATOM     36  C   UNL     1     -59.386 -64.457 -69.299  0.00  0.00    +0.000 C 
ATOM     37  C   UNL     1     -58.091 -66.237 -68.212  0.00  0.00    +0.000 C 
ATOM     38  C   UNL     1     -57.438 -63.902 -67.816  0.00  0.00    +0.000 C 
BRANCH  33  39
ATOM     39  N   UNL     1     -59.055 -67.431 -71.777  0.00  0.00    +0.000 NA
ATOM     40  C   UNL     1     -58.688 -66.500 -72.866  0.00  0.00    +0.000 C 
ATOM     41  C   UNL     1     -58.079 -68.539 -71.714  0.00  0.00    +0.000 C 
ATOM     42  C   UNL     1     -58.565 -67.194 -74.225  0.00  0.00    +0.000 C 
ATOM     43  C   UNL     1     -57.939 -69.284 -73.043  0.00  0.00    +0.000 C 
ATOM     44  C   UNL     1     -57.570 -68.341 -74.175  0.00  0.00    +0.000 C 
ENDBRANCH  33  39
ENDBRANCH  30  38
ENDBRANCH  20  30
TORSDOF 6
ENDMDL
MODEL 3
REMARK VINA RESULT:      -6.7     11.409     13.293
REMARK  Name = 
REMARK  8 active torsions:
REMARK  status: ('A' for Active; 'I' for Inactive)
REMARK    1  A    between atoms: O_1  and  C_21
REMARK    2  A    between atoms: O_1  and  C_38
REMARK    3  A    between atoms: O_4  and  C_26
REMARK    4  A    between atoms: N_7  and  C_11
REMARK    5  A    between atoms: C_26  and  C_33
REMARK    6  A    between atoms: C_29  and  C_37
REMARK    7  A    between atoms: C_33  and  C_42
REMARK    8  A    between atoms: C_37  and  C_43
REMARK                            x       y       z     vdW  Elec       q    Type
REMARK                         _______ _______ _______ _____ _____    ______ ____
ROOT
ATOM      1  O   UNL     1     -58.340 -59.965 -29.954  0.00  0.00    +0.000 OA
ATOM      2  O   UNL     1     -56.720 -59.829 -26.068  0.00  0.00    +0.000 OA
ATOM      3  O   UNL     1     -60.294 -59.670 -31.024  0.00  0.00    +0.000 OA
ATOM      4  N   UNL     1     -58.253 -58.260 -25.393  0.00  0.00    +0.000 N 
ATOM      5  N   UNL     1     -60.607 -55.773 -24.325  0.00  0.00    +0.000 NA
ATOM      6  C   UNL     1     -59.287 -57.392 -25.679  0.00  0.00    +0.000 A 
ATOM      7  C   UNL     1     -58.832 -57.170 -23.431  0.00  0.00    +0.000 A 
ATOM      8  C   UNL     1     -57.884 -58.199 -23.976  0.00  0.00    +0.000 C 
ATOM      9  C   UNL     1     -59.217 -58.112 -27.977  0.00  0.00    +0.000 A 
ATOM     10  C   UNL     1     -59.729 -57.978 -29.390  0.00  0.00    +0.000 C 
ATOM     11  C   UNL     1     -59.654 -56.700 -24.448  0.00  0.00    +0.000 A 
ATOM     12  C   UNL     1     -58.208 -58.962 -27.705  0.00  0.00    +0.000 A 
ATOM     13  C   UNL     1     -58.981 -56.660 -22.149  0.00  0.00    +0.000 A 
ATOM     14  C   UNL     1     -59.782 -57.287 -26.916  0.00  0.00    +0.000 A 
ATOM     15  C   UNL     1     -57.650 -59.071 -26.319  0.00  0.00    +0.000 A 
ATOM     16  C   UNL     1     -59.975 -55.656 -21.966  0.00  0.00    +0.000 A 
ATOM     17  C   UNL     1     -57.573 -59.823 -28.741  0.00  0.00    +0.000 C 
ATOM     18  C   UNL     1     -60.759 -55.257 -23.096  0.00  0.00    +0.000 A 
ATOM     19  C   UNL     1     -59.488 -59.289 -30.173  0.00  0.00    +0.000 C 
ATOM     20  C   UNL     1     -61.205 -54.043 -20.615  0.00  0.00    +0.000 A 
ATOM     21  C   UNL     1     -60.227 -55.030 -20.726  0.00  0.00    +0.000 A 
ATOM     22  C   UNL     1     -61.739 -54.285 -22.934  0.00  0.00    +0.000 A 
ATOM     23  C   UNL     1     -61.979 -53.675 -21.702  0.00  0.00    +0.000 A 
ENDROOT
BRANCH  10  24
ATOM     24  O   UNL     1     -61.141 -57.730 -29.347  0.00  0.00    +0.000 OA
ATOM     25  H   UNL     1     -61.250 -56.842 -28.951  0.00  0.00    +0.000 HD
ENDBRANCH  10  24
BRANCH  10  26
ATOM     26  C   UNL     1     -59.034 -56.801 -30.107  0.00  0.00    +0.000 C 
ATOM     27  C   UNL     1     -59.649 -56.429 -31.454  0.00  0.00    +0.000 C 
ENDBRANCH  10  26
BRANCH  13  28
ATOM     28  C   UNL     1     -58.086 -57.152 -21.037  0.00  0.00    +0.000 C 
ATOM     29  C   UNL     1     -56.785 -56.366 -20.958  0.00  0.00    +0.000 C 
ENDBRANCH  13  28
BRANCH  20  30
ATOM     30  O   UNL     1     -61.459 -53.475 -19.366  0.00  0.00    +0.000 OA
BRANCH  30  38
ATOM     31  O   UNL     1     -62.365 -55.391 -18.430  0.00  0.00    +0.000 OA
ATOM     32  N   UNL     1     -63.375 -53.351 -18.080  0.00  0.00    +0.000 N 
ATOM     33  C   UNL     1     -65.923 -51.937 -17.809  0.00  0.00    +0.000 C 
ATOM     34  C   UNL     1     -64.768 -51.429 -18.709  0.00  0.00    +0.000 C 
ATOM     35  C   UNL     1     -65.792 -53.475 -17.672  0.00  0.00    +0.000 C 
ATOM     36  C   UNL     1     -63.399 -51.906 -18.232  0.00  0.00    +0.000 C 
ATOM     37  C   UNL     1     -64.401 -53.905 -17.217  0.00  0.00    +0.000 C 
ATOM     38  C   UNL     1     -62.394 -54.176 -18.609  0.00  0.00    +0.000 C 
BRANCH  33  39
ATOM     39  N   UNL     1     -67.265 -51.538 -18.339  0.00  0.00    +0.000 NA
ATOM     40  C   UNL     1     -67.566 -50.115 -18.071  0.00  0.00    +0.000 C 
ATOM     41  C   UNL     1     -67.402 -51.817 -19.783  0.00  0.00    +0.000 C 
ATOM     42  C   UNL     1     -68.948 -49.695 -18.577  0.00  0.00    +0.000 C 
ATOM     43  C   UNL     1     -68.779 -51.439 -20.334  0.00  0.00    +0.000 C 
ATOM     44  C   UNL     1     -69.108 -49.982 -20.060  0.00  0.00    +0.000 C 
ENDBRANCH  33  39
ENDBRANCH  30  38
ENDBRANCH  20  30
TORSDOF 6
ENDMDL
MODEL 4
REMARK VINA RESULT:      -6.7      3.279      5.141
REMARK  Name = 
REMARK  8 active torsions:
REMARK  status: ('A' for Active; 'I' for Inactive)
REMARK    1  A    between atoms: O_1  and  C_21
REMARK    2  A    between atoms: O_1  and  C_38
REMARK    3  A    between atoms: O_4  and  C_26
REMARK    4  A    between atoms: N_7  and  C_11
REMARK    5  A    between atoms: C_26  and  C_33
REMARK    6  A    between atoms: C_29  and  C_37
REMARK    7  A    between atoms: C_33  and  C_42
REMARK    8  A    between atoms: C_37  and  C_43
REMARK                            x       y       z     vdW  Elec       q    Type
REMARK                         _______ _______ _______ _____ _____    ______ ____
ROOT
ATOM      1  O   UNL     1     -67.110 -59.795 -36.393  0.00  0.00    +0.000 OA
ATOM      2  O   UNL     1     -67.343 -58.667 -32.341  0.00  0.00    +0.000 OA
ATOM      3  O   UNL     1     -68.415 -59.985 -38.213  0.00  0.00    +0.000 OA
ATOM      4  N   UNL     1     -69.071 -57.216 -32.757  0.00  0.00    +0.000 N 
ATOM      5  N   UNL     1     -71.740 -54.903 -33.388  0.00  0.00    +0.000 NA
ATOM      6  C   UNL     1     -69.908 -56.568 -33.644  0.00  0.00    +0.000 A 
ATOM      7  C   UNL     1     -70.482 -55.842 -31.534  0.00  0.00    +0.000 A 
ATOM      8  C   UNL     1     -69.356 -56.823 -31.374  0.00  0.00    +0.000 C 
ATOM      9  C   UNL     1     -68.822 -57.718 -35.462  0.00  0.00    +0.000 A 
ATOM     10  C   UNL     1     -68.674 -57.940 -36.946  0.00  0.00    +0.000 C 
ATOM     11  C   UNL     1     -70.797 -55.700 -32.880  0.00  0.00    +0.000 A 
ATOM     12  C   UNL     1     -68.002 -58.354 -34.602  0.00  0.00    +0.000 A 
ATOM     13  C   UNL     1     -71.190 -55.111 -30.591  0.00  0.00    +0.000 A 
ATOM     14  C   UNL     1     -69.820 -56.781 -34.961  0.00  0.00    +0.000 A 
ATOM     15  C   UNL     1     -68.098 -58.107 -33.128  0.00  0.00    +0.000 A 
ATOM     16  C   UNL     1     -72.199 -54.232 -31.082  0.00  0.00    +0.000 A 
ATOM     17  C   UNL     1     -66.951 -59.311 -35.043  0.00  0.00    +0.000 C 
ATOM     18  C   UNL     1     -72.429 -54.177 -32.495  0.00  0.00    +0.000 A 
ATOM     19  C   UNL     1     -68.072 -59.336 -37.223  0.00  0.00    +0.000 C 
ATOM     20  C   UNL     1     -73.950 -52.562 -30.789  0.00  0.00    +0.000 A 
ATOM     21  C   UNL     1     -72.986 -53.410 -30.246  0.00  0.00    +0.000 A 
ATOM     22  C   UNL     1     -73.415 -53.332 -32.989  0.00  0.00    +0.000 A 
ATOM     23  C   UNL     1     -74.187 -52.526 -32.153  0.00  0.00    +0.000 A 
ENDROOT
BRANCH  10  24
ATOM     24  O   UNL     1     -69.973 -57.880 -37.553  0.00  0.00    +0.000 OA
ATOM     25  H   UNL     1     -69.919 -57.189 -38.244  0.00  0.00    +0.000 HD
ENDBRANCH  10  24
BRANCH  10  26
ATOM     26  C   UNL     1     -67.779 -56.848 -37.569  0.00  0.00    +0.000 C 
ATOM     27  C   UNL     1     -67.989 -56.635 -39.066  0.00  0.00    +0.000 C 
ENDBRANCH  10  26
BRANCH  13  28
ATOM     28  C   UNL     1     -70.850 -55.245 -29.127  0.00  0.00    +0.000 C 
ATOM     29  C   UNL     1     -71.495 -56.471 -28.497  0.00  0.00    +0.000 C 
ENDBRANCH  13  28
BRANCH  20  30
ATOM     30  O   UNL     1     -74.740 -51.795 -29.933  0.00  0.00    +0.000 OA
BRANCH  30  38
ATOM     31  O   UNL     1     -75.469 -49.752 -30.747  0.00  0.00    +0.000 OA
ATOM     32  N   UNL     1     -73.469 -49.892 -29.614  0.00  0.00    +0.000 N 
ATOM     33  C   UNL     1     -70.714 -48.919 -29.458  0.00  0.00    +0.000 C 
ATOM     34  C   UNL     1     -71.083 -50.422 -29.385  0.00  0.00    +0.000 C 
ATOM     35  C   UNL     1     -71.826 -48.183 -30.248  0.00  0.00    +0.000 C 
ATOM     36  C   UNL     1     -72.494 -50.656 -28.854  0.00  0.00    +0.000 C 
ATOM     37  C   UNL     1     -73.219 -48.466 -29.696  0.00  0.00    +0.000 C 
ATOM     38  C   UNL     1     -74.634 -50.424 -30.147  0.00  0.00    +0.000 C 
BRANCH  33  39
ATOM     39  N   UNL     1     -69.363 -48.701 -30.064  0.00  0.00    +0.000 NA
ATOM     40  C   UNL     1     -68.349 -48.346 -29.048  0.00  0.00    +0.000 C 
ATOM     41  C   UNL     1     -68.904 -49.869 -30.845  0.00  0.00    +0.000 C 
ATOM     42  C   UNL     1     -66.967 -48.088 -29.651  0.00  0.00    +0.000 C 
ATOM     43  C   UNL     1     -67.535 -49.650 -31.493  0.00  0.00    +0.000 C 
ATOM     44  C   UNL     1     -66.483 -49.278 -30.463  0.00  0.00    +0.000 C 
ENDBRANCH  33  39
ENDBRANCH  30  38
ENDBRANCH  20  30
TORSDOF 6
ENDMDL
MODEL 5
REMARK VINA RESULT:      -6.6     19.979     26.183
REMARK  Name = 
REMARK  8 active torsions:
REMARK  status: ('A' for Active; 'I' for Inactive)
REMARK    1  A    between atoms: O_1  and  C_21
REMARK    2  A    between atoms: O_1  and  C_38
REMARK    3  A    between atoms: O_4  and  C_26
REMARK    4  A    between atoms: N_7  and  C_11
REMARK    5  A    between atoms: C_26  and  C_33
REMARK    6  A    between atoms: C_29  and  C_37
REMARK    7  A    between atoms: C_33  and  C_42
REMARK    8  A    between atoms: C_37  and  C_43
REMARK                            x       y       z     vdW  Elec       q    Type
REMARK                         _______ _______ _______ _____ _____    ______ ____
ROOT
ATOM      1  O   UNL     1     -59.375 -46.080 -41.329  0.00  0.00    +0.000 OA
ATOM      2  O   UNL     1     -62.753 -43.991 -42.735  0.00  0.00    +0.000 OA
ATOM      3  O   UNL     1     -58.079 -47.834 -41.870  0.00  0.00    +0.000 OA
ATOM      4  N   UNL     1     -62.285 -44.533 -44.915  0.00  0.00    +0.000 N 
ATOM      5  N   UNL     1     -61.550 -45.324 -48.336  0.00  0.00    +0.000 NA
ATOM      6  C   UNL     1     -61.451 -45.098 -45.859  0.00  0.00    +0.000 A 
ATOM      7  C   UNL     1     -63.268 -44.250 -46.995  0.00  0.00    +0.000 A 
ATOM      8  C   UNL     1     -63.482 -43.961 -45.538  0.00  0.00    +0.000 C 
ATOM      9  C   UNL     1     -59.925 -45.715 -44.099  0.00  0.00    +0.000 A 
ATOM     10  C   UNL     1     -58.610 -46.324 -43.684  0.00  0.00    +0.000 C 
ATOM     11  C   UNL     1     -62.063 -44.921 -47.171  0.00  0.00    +0.000 A 
ATOM     12  C   UNL     1     -60.735 -45.166 -43.172  0.00  0.00    +0.000 A 
ATOM     13  C   UNL     1     -64.047 -43.954 -48.105  0.00  0.00    +0.000 A 
ATOM     14  C   UNL     1     -60.300 -45.679 -45.509  0.00  0.00    +0.000 A 
ATOM     15  C   UNL     1     -62.021 -44.509 -43.571  0.00  0.00    +0.000 A 
ATOM     16  C   UNL     1     -63.537 -44.350 -49.375  0.00  0.00    +0.000 A 
ATOM     17  C   UNL     1     -60.410 -45.153 -41.720  0.00  0.00    +0.000 C 
ATOM     18  C   UNL     1     -62.281 -45.037 -49.424  0.00  0.00    +0.000 A 
ATOM     19  C   UNL     1     -58.687 -46.822 -42.223  0.00  0.00    +0.000 C 
ATOM     20  C   UNL     1     -63.649 -44.501 -51.805  0.00  0.00    +0.000 A 
ATOM     21  C   UNL     1     -64.207 -44.099 -50.593  0.00  0.00    +0.000 A 
ATOM     22  C   UNL     1     -61.774 -45.438 -50.653  0.00  0.00    +0.000 A 
ATOM     23  C   UNL     1     -62.446 -45.186 -51.849  0.00  0.00    +0.000 A 
ENDROOT
BRANCH  10  24
ATOM     24  O   UNL     1     -58.335 -47.450 -44.531  0.00  0.00    +0.000 OA
ATOM     25  H   UNL     1     -59.113 -47.547 -45.116  0.00  0.00    +0.000 HD
ENDBRANCH  10  24
BRANCH  10  26
ATOM     26  C   UNL     1     -57.468 -45.296 -43.831  0.00  0.00    +0.000 C 
ATOM     27  C   UNL     1     -56.258 -45.802 -44.612  0.00  0.00    +0.000 C 
ENDBRANCH  10  26
BRANCH  13  28
ATOM     28  C   UNL     1     -65.351 -43.214 -47.930  0.00  0.00    +0.000 C 
ATOM     29  C   UNL     1     -66.517 -44.158 -47.676  0.00  0.00    +0.000 C 
ENDBRANCH  13  28
BRANCH  20  30
ATOM     30  O   UNL     1     -64.356 -44.277 -52.987  0.00  0.00    +0.000 OA
BRANCH  30  38
ATOM     31  O   UNL     1     -65.421 -46.327 -52.819  0.00  0.00    +0.000 OA
ATOM     32  N   UNL     1     -64.985 -45.424 -54.892  0.00  0.00    +0.000 N 
ATOM     33  C   UNL     1     -64.188 -45.991 -57.650  0.00  0.00    +0.000 C 
ATOM     34  C   UNL     1     -63.557 -44.854 -56.807  0.00  0.00    +0.000 C 
ATOM     35  C   UNL     1     -64.713 -47.082 -56.681  0.00  0.00    +0.000 C 
ATOM     36  C   UNL     1     -64.498 -44.336 -55.723  0.00  0.00    +0.000 C 
ATOM     37  C   UNL     1     -65.628 -46.512 -55.602  0.00  0.00    +0.000 C 
ATOM     38  C   UNL     1     -64.961 -45.418 -53.505  0.00  0.00    +0.000 C 
BRANCH  33  39
ATOM     39  N   UNL     1     -63.224 -46.551 -58.649  0.00  0.00    +0.000 NA
ATOM     40  C   UNL     1     -63.834 -46.694 -59.988  0.00  0.00    +0.000 C 
ATOM     41  C   UNL     1     -61.987 -45.749 -58.743  0.00  0.00    +0.000 C 
ATOM     42  C   UNL     1     -62.873 -47.295 -61.018  0.00  0.00    +0.000 C 
ATOM     43  C   UNL     1     -60.980 -46.324 -59.742  0.00  0.00    +0.000 C 
ATOM     44  C   UNL     1     -61.593 -46.485 -61.122  0.00  0.00    +0.000 C 
ENDBRANCH  33  39
ENDBRANCH  30  38
ENDBRANCH  20  30
TORSDOF 6
ENDMDL
MODEL 6
REMARK VINA RESULT:      -6.5     16.762     22.746
REMARK  Name = 
REMARK  8 active torsions:
REMARK  status: ('A' for Active; 'I' for Inactive)
REMARK    1  A    between atoms: O_1  and  C_21
REMARK    2  A    between atoms: O_1  and  C_38
REMARK    3  A    between atoms: O_4  and  C_26
REMARK    4  A    between atoms: N_7  and  C_11
REMARK    5  A    between atoms: C_26  and  C_33
REMARK    6  A    between atoms: C_29  and  C_37
REMARK    7  A    between atoms: C_33  and  C_42
REMARK    8  A    between atoms: C_37  and  C_43
REMARK                            x       y       z     vdW  Elec       q    Type
REMARK                         _______ _______ _______ _____ _____    ______ ____
ROOT
ATOM      1  O   UNL     1     -66.424 -48.808 -55.754  0.00  0.00    +0.000 OA
ATOM      2  O   UNL     1     -63.824 -45.520 -55.331  0.00  0.00    +0.000 OA
ATOM      3  O   UNL     1     -66.806 -50.836 -54.864  0.00  0.00    +0.000 OA
ATOM      4  N   UNL     1     -63.509 -45.950 -53.099  0.00  0.00    +0.000 N 
ATOM      5  N   UNL     1     -63.036 -46.569 -49.597  0.00  0.00    +0.000 NA
ATOM      6  C   UNL     1     -63.816 -46.665 -51.959  0.00  0.00    +0.000 A 
ATOM      7  C   UNL     1     -62.222 -45.111 -51.362  0.00  0.00    +0.000 A 
ATOM      8  C   UNL     1     -62.494 -44.927 -52.827  0.00  0.00    +0.000 C 
ATOM      9  C   UNL     1     -65.387 -47.970 -53.237  0.00  0.00    +0.000 A 
ATOM     10  C   UNL     1     -66.443 -49.046 -53.277  0.00  0.00    +0.000 C 
ATOM     11  C   UNL     1     -63.010 -46.140 -50.862  0.00  0.00    +0.000 A 
ATOM     12  C   UNL     1     -65.092 -47.276 -54.354  0.00  0.00    +0.000 A 
ATOM     13  C   UNL     1     -61.361 -44.439 -50.506  0.00  0.00    +0.000 A 
ATOM     14  C   UNL     1     -64.719 -47.650 -51.980  0.00  0.00    +0.000 A 
ATOM     15  C   UNL     1     -64.084 -46.168 -54.323  0.00  0.00    +0.000 A 
ATOM     16  C   UNL     1     -61.360 -44.848 -49.141  0.00  0.00    +0.000 A 
ATOM     17  C   UNL     1     -65.744 -47.538 -55.666  0.00  0.00    +0.000 C 
ATOM     18  C   UNL     1     -62.220 -45.924 -48.749  0.00  0.00    +0.000 A 
ATOM     19  C   UNL     1     -66.548 -49.642 -54.699  0.00  0.00    +0.000 C 
ATOM     20  C   UNL     1     -60.608 -44.682 -46.829  0.00  0.00    +0.000 A 
ATOM     21  C   UNL     1     -60.553 -44.245 -48.151  0.00  0.00    +0.000 A 
ATOM     22  C   UNL     1     -62.224 -46.341 -47.424  0.00  0.00    +0.000 A 
ATOM     23  C   UNL     1     -61.422 -45.738 -46.456  0.00  0.00    +0.000 A 
ENDROOT
BRANCH  10  24
ATOM     24  O   UNL     1     -66.065 -50.096 -52.375  0.00  0.00    +0.000 OA
ATOM     25  H   UNL     1     -65.779 -49.656 -51.549  0.00  0.00    +0.000 HD
ENDBRANCH  10  24
BRANCH  10  26
ATOM     26  C   UNL     1     -67.810 -48.478 -52.840  0.00  0.00    +0.000 C 
ATOM     27  C   UNL     1     -68.699 -49.470 -52.095  0.00  0.00    +0.000 C 
ENDBRANCH  10  26
BRANCH  13  28
ATOM     28  C   UNL     1     -60.508 -43.311 -51.034  0.00  0.00    +0.000 C 
ATOM     29  C   UNL     1     -61.233 -41.974 -50.986  0.00  0.00    +0.000 C 
ENDBRANCH  13  28
BRANCH  20  30
ATOM     30  O   UNL     1     -59.767 -44.095 -45.883  0.00  0.00    +0.000 OA
BRANCH  30  38
ATOM     31  O   UNL     1     -58.520 -45.924 -45.200  0.00  0.00    +0.000 OA
ATOM     32  N   UNL     1     -59.729 -44.714 -43.657  0.00  0.00    +0.000 N 
ATOM     33  C   UNL     1     -61.371 -44.848 -41.239  0.00  0.00    +0.000 C 
ATOM     34  C   UNL     1     -61.777 -44.027 -42.489  0.00  0.00    +0.000 C 
ATOM     35  C   UNL     1     -60.443 -46.003 -41.695  0.00  0.00    +0.000 C 
ATOM     36  C   UNL     1     -60.573 -43.582 -43.315  0.00  0.00    +0.000 C 
ATOM     37  C   UNL     1     -59.270 -45.512 -42.537  0.00  0.00    +0.000 C 
ATOM     38  C   UNL     1     -59.272 -44.989 -44.938  0.00  0.00    +0.000 C 
BRANCH  33  39
ATOM     39  N   UNL     1     -62.563 -45.355 -40.488  0.00  0.00    +0.000 NA
ATOM     40  C   UNL     1     -63.821 -45.140 -41.233  0.00  0.00    +0.000 C 
ATOM     41  C   UNL     1     -62.430 -46.782 -40.127  0.00  0.00    +0.000 C 
ATOM     42  C   UNL     1     -65.055 -45.623 -40.468  0.00  0.00    +0.000 C 
ATOM     43  C   UNL     1     -63.630 -47.308 -39.334  0.00  0.00    +0.000 C 
ATOM     44  C   UNL     1     -64.932 -47.088 -40.083  0.00  0.00    +0.000 C 
ENDBRANCH  33  39
ENDBRANCH  30  38
ENDBRANCH  20  30
TORSDOF 6
ENDMDL
MODEL 7
REMARK VINA RESULT:      -6.4     42.116     48.700
REMARK  Name = 
REMARK  8 active torsions:
REMARK  status: ('A' for Active; 'I' for Inactive)
REMARK    1  A    between atoms: O_1  and  C_21
REMARK    2  A    between atoms: O_1  and  C_38
REMARK    3  A    between atoms: O_4  and  C_26
REMARK    4  A    between atoms: N_7  and  C_11
REMARK    5  A    between atoms: C_26  and  C_33
REMARK    6  A    between atoms: C_29  and  C_37
REMARK    7  A    between atoms: C_33  and  C_42
REMARK    8  A    between atoms: C_37  and  C_43
REMARK                            x       y       z     vdW  Elec       q    Type
REMARK                         _______ _______ _______ _____ _____    ______ ____
ROOT
ATOM      1  O   UNL     1     -68.604 -61.924 -71.220  0.00  0.00    +0.000 OA
ATOM      2  O   UNL     1     -69.175 -59.102 -74.297  0.00  0.00    +0.000 OA
ATOM      3  O   UNL     1     -67.678 -63.942 -70.875  0.00  0.00    +0.000 OA
ATOM      4  N   UNL     1     -67.258 -59.763 -75.372  0.00  0.00    +0.000 N 
ATOM      5  N   UNL     1     -64.241 -60.741 -77.048  0.00  0.00    +0.000 NA
ATOM      6  C   UNL     1     -66.104 -60.519 -75.413  0.00  0.00    +0.000 A 
ATOM      7  C   UNL     1     -66.154 -59.273 -77.350  0.00  0.00    +0.000 A 
ATOM      8  C   UNL     1     -67.388 -58.927 -76.569  0.00  0.00    +0.000 C 
ATOM      9  C   UNL     1     -66.685 -61.466 -73.274  0.00  0.00    +0.000 A 
ATOM     10  C   UNL     1     -66.326 -62.368 -72.120  0.00  0.00    +0.000 C 
ATOM     11  C   UNL     1     -65.404 -60.214 -76.655  0.00  0.00    +0.000 A 
ATOM     12  C   UNL     1     -67.813 -60.730 -73.228  0.00  0.00    +0.000 A 
ATOM     13  C   UNL     1     -65.694 -58.811 -78.576  0.00  0.00    +0.000 A 
ATOM     14  C   UNL     1     -65.788 -61.355 -74.419  0.00  0.00    +0.000 A 
ATOM     15  C   UNL     1     -68.160 -59.789 -74.340  0.00  0.00    +0.000 A 
ATOM     16  C   UNL     1     -64.449 -59.330 -79.034  0.00  0.00    +0.000 A 
ATOM     17  C   UNL     1     -68.766 -60.781 -72.086  0.00  0.00    +0.000 C 
ATOM     18  C   UNL     1     -63.771 -60.298 -78.224  0.00  0.00    +0.000 A 
ATOM     19  C   UNL     1     -67.603 -62.818 -71.374  0.00  0.00    +0.000 C 
ATOM     20  C   UNL     1     -62.618 -59.474 -80.637  0.00  0.00    +0.000 A 
ATOM     21  C   UNL     1     -63.845 -58.939 -80.250  0.00  0.00    +0.000 A 
ATOM     22  C   UNL     1     -62.560 -60.821 -78.661  0.00  0.00    +0.000 A 
ATOM     23  C   UNL     1     -61.975 -60.427 -79.864  0.00  0.00    +0.000 A 
ENDROOT
BRANCH  10  24
ATOM     24  O   UNL     1     -65.668 -63.534 -72.633  0.00  0.00    +0.000 OA
ATOM     25  H   UNL     1     -64.757 -63.257 -72.858  0.00  0.00    +0.000 HD
ENDBRANCH  10  24
BRANCH  10  26
ATOM     26  C   UNL     1     -65.374 -61.644 -71.144  0.00  0.00    +0.000 C 
ATOM     27  C   UNL     1     -64.196 -62.488 -70.667  0.00  0.00    +0.000 C 
ENDBRANCH  10  26
BRANCH  13  28
ATOM     28  C   UNL     1     -66.492 -57.779 -79.335  0.00  0.00    +0.000 C 
ATOM     29  C   UNL     1     -66.138 -56.360 -78.919  0.00  0.00    +0.000 C 
ENDBRANCH  13  28
BRANCH  20  30
ATOM     30  O   UNL     1     -62.069 -59.100 -81.864  0.00  0.00    +0.000 OA
BRANCH  30  38
ATOM     31  O   UNL     1     -60.267 -57.753 -81.312  0.00  0.00    +0.000 OA
ATOM     32  N   UNL     1     -62.075 -56.858 -82.424  0.00  0.00    +0.000 N 
ATOM     33  C   UNL     1     -63.816 -54.523 -82.708  0.00  0.00    +0.000 C 
ATOM     34  C   UNL     1     -64.358 -55.969 -82.590  0.00  0.00    +0.000 C 
ATOM     35  C   UNL     1     -62.431 -54.464 -82.014  0.00  0.00    +0.000 C 
ATOM     36  C   UNL     1     -63.360 -57.013 -83.084  0.00  0.00    +0.000 C 
ATOM     37  C   UNL     1     -61.477 -55.540 -82.522  0.00  0.00    +0.000 C 
ATOM     38  C   UNL     1     -61.374 -57.894 -81.824  0.00  0.00    +0.000 C 
BRANCH  33  39
ATOM     39  N   UNL     1     -64.767 -53.517 -82.138  0.00  0.00    +0.000 NA
ATOM     40  C   UNL     1     -66.082 -54.115 -81.820  0.00  0.00    +0.000 C 
ATOM     41  C   UNL     1     -64.219 -52.845 -80.942  0.00  0.00    +0.000 C 
ATOM     42  C   UNL     1     -67.079 -53.096 -81.264  0.00  0.00    +0.000 C 
ATOM     43  C   UNL     1     -65.169 -51.794 -80.362  0.00  0.00    +0.000 C 
ATOM     44  C   UNL     1     -66.528 -52.390 -80.037  0.00  0.00    +0.000 C 
ENDBRANCH  33  39
ENDBRANCH  30  38
ENDBRANCH  20  30
TORSDOF 6
ENDMDL
MODEL 8
REMARK VINA RESULT:      -6.4     16.551     23.964
REMARK  Name = 
REMARK  8 active torsions:
REMARK  status: ('A' for Active; 'I' for Inactive)
REMARK    1  A    between atoms: O_1  and  C_21
REMARK    2  A    between atoms: O_1  and  C_38
REMARK    3  A    between atoms: O_4  and  C_26
REMARK    4  A    between atoms: N_7  and  C_11
REMARK    5  A    between atoms: C_26  and  C_33
REMARK    6  A    between atoms: C_29  and  C_37
REMARK    7  A    between atoms: C_33  and  C_42
REMARK    8  A    between atoms: C_37  and  C_43
REMARK                            x       y       z     vdW  Elec       q    Type
REMARK                         _______ _______ _______ _____ _____    ______ ____
ROOT
ATOM      1  O   UNL     1     -65.182 -45.227 -40.540  0.00  0.00    +0.000 OA
ATOM      2  O   UNL     1     -62.313 -43.910 -43.329  0.00  0.00    +0.000 OA
ATOM      3  O   UNL     1     -65.744 -47.064 -39.374  0.00  0.00    +0.000 OA
ATOM      4  N   UNL     1     -60.737 -45.370 -42.523  0.00  0.00    +0.000 N 
ATOM      5  N   UNL     1     -58.238 -47.607 -41.251  0.00  0.00    +0.000 NA
ATOM      6  C   UNL     1     -60.334 -46.310 -41.597  0.00  0.00    +0.000 A 
ATOM      7  C   UNL     1     -58.576 -46.017 -43.057  0.00  0.00    +0.000 A 
ATOM      8  C   UNL     1     -59.683 -45.109 -43.508  0.00  0.00    +0.000 C 
ATOM      9  C   UNL     1     -62.477 -46.115 -40.511  0.00  0.00    +0.000 A 
ATOM     10  C   UNL     1     -63.391 -46.503 -39.376  0.00  0.00    +0.000 C 
ATOM     11  C   UNL     1     -58.973 -46.720 -41.926  0.00  0.00    +0.000 A 
ATOM     12  C   UNL     1     -62.876 -45.196 -41.413  0.00  0.00    +0.000 A 
ATOM     13  C   UNL     1     -57.305 -46.227 -43.574  0.00  0.00    +0.000 A 
ATOM     14  C   UNL     1     -61.143 -46.699 -40.606  0.00  0.00    +0.000 A 
ATOM     15  C   UNL     1     -61.963 -44.759 -42.516  0.00  0.00    +0.000 A 
ATOM     16  C   UNL     1     -56.473 -47.155 -42.882  0.00  0.00    +0.000 A 
ATOM     17  C   UNL     1     -64.216 -44.549 -41.368  0.00  0.00    +0.000 C 
ATOM     18  C   UNL     1     -57.001 -47.817 -41.726  0.00  0.00    +0.000 A 
ATOM     19  C   UNL     1     -64.868 -46.301 -39.784  0.00  0.00    +0.000 C 
ATOM     20  C   UNL     1     -54.383 -48.363 -42.549  0.00  0.00    +0.000 A 
ATOM     21  C   UNL     1     -55.151 -47.455 -43.276  0.00  0.00    +0.000 A 
ATOM     22  C   UNL     1     -56.206 -48.730 -41.046  0.00  0.00    +0.000 A 
ATOM     23  C   UNL     1     -54.902 -49.020 -41.447  0.00  0.00    +0.000 A 
ENDROOT
BRANCH  10  24
ATOM     24  O   UNL     1     -63.190 -47.892 -39.078  0.00  0.00    +0.000 OA
ATOM     25  H   UNL     1     -63.828 -48.114 -38.370  0.00  0.00    +0.000 HD
ENDBRANCH  10  24
BRANCH  10  26
ATOM     26  C   UNL     1     -63.073 -45.669 -38.117  0.00  0.00    +0.000 C 
ATOM     27  C   UNL     1     -62.706 -46.495 -36.887  0.00  0.00    +0.000 C 
ENDBRANCH  10  26
BRANCH  13  28
ATOM     28  C   UNL     1     -56.855 -45.461 -44.794  0.00  0.00    +0.000 C 
ATOM     29  C   UNL     1     -57.212 -46.179 -46.086  0.00  0.00    +0.000 C 
ENDBRANCH  13  28
BRANCH  20  30
ATOM     30  O   UNL     1     -53.096 -48.671 -42.990  0.00  0.00    +0.000 OA
BRANCH  30  38
ATOM     31  O   UNL     1     -52.271 -46.507 -43.017  0.00  0.00    +0.000 OA
ATOM     32  N   UNL     1     -51.952 -47.882 -44.837  0.00  0.00    +0.000 N 
ATOM     33  C   UNL     1     -51.842 -48.028 -47.757  0.00  0.00    +0.000 C 
ATOM     34  C   UNL     1     -52.642 -49.034 -46.892  0.00  0.00    +0.000 C 
ATOM     35  C   UNL     1     -51.728 -46.695 -46.974  0.00  0.00    +0.000 C 
ATOM     36  C   UNL     1     -52.075 -49.177 -45.482  0.00  0.00    +0.000 C 
ATOM     37  C   UNL     1     -51.181 -46.892 -45.564  0.00  0.00    +0.000 C 
ATOM     38  C   UNL     1     -52.425 -47.595 -43.565  0.00  0.00    +0.000 C 
BRANCH  33  39
ATOM     39  N   UNL     1     -52.460 -47.830 -49.106  0.00  0.00    +0.000 NA
ATOM     40  C   UNL     1     -53.697 -48.623 -49.272  0.00  0.00    +0.000 C 
ATOM     41  C   UNL     1     -52.734 -46.406 -49.391  0.00  0.00    +0.000 C 
ATOM     42  C   UNL     1     -54.328 -48.457 -50.656  0.00  0.00    +0.000 C 
ATOM     43  C   UNL     1     -53.342 -46.184 -50.778  0.00  0.00    +0.000 C 
ATOM     44  C   UNL     1     -54.610 -46.998 -50.968  0.00  0.00    +0.000 C 
ENDBRANCH  33  39
ENDBRANCH  30  38
ENDBRANCH  20  30
TORSDOF 6
ENDMDL
MODEL 9
REMARK VINA RESULT:      -6.4     29.589     37.464
REMARK  Name = 
REMARK  8 active torsions:
REMARK  status: ('A' for Active; 'I' for Inactive)
REMARK    1  A    between atoms: O_1  and  C_21
REMARK    2  A    between atoms: O_1  and  C_38
REMARK    3  A    between atoms: O_4  and  C_26
REMARK    4  A    between atoms: N_7  and  C_11
REMARK    5  A    between atoms: C_26  and  C_33
REMARK    6  A    between atoms: C_29  and  C_37
REMARK    7  A    between atoms: C_33  and  C_42
REMARK    8  A    between atoms: C_37  and  C_43
REMARK                            x       y       z     vdW  Elec       q    Type
REMARK                         _______ _______ _______ _____ _____    ______ ____
ROOT
ATOM      1  O   UNL     1     -61.052 -66.915 -71.408  0.00  0.00    +0.000 OA
ATOM      2  O   UNL     1     -61.934 -65.906 -67.414  0.00  0.00    +0.000 OA
ATOM      3  O   UNL     1     -60.264 -65.980 -73.293  0.00  0.00    +0.000 OA
ATOM      4  N   UNL     1     -60.322 -64.273 -67.382  0.00  0.00    +0.000 N 
ATOM      5  N   UNL     1     -57.776 -61.748 -67.288  0.00  0.00    +0.000 NA
ATOM      6  C   UNL     1     -59.270 -63.613 -67.984  0.00  0.00    +0.000 A 
ATOM      7  C   UNL     1     -59.571 -62.643 -65.916  0.00  0.00    +0.000 A 
ATOM      8  C   UNL     1     -60.599 -63.728 -66.050  0.00  0.00    +0.000 C 
ATOM      9  C   UNL     1     -59.521 -65.036 -69.913  0.00  0.00    +0.000 A 
ATOM     10  C   UNL     1     -59.034 -65.464 -71.275  0.00  0.00    +0.000 C 
ATOM     11  C   UNL     1     -58.791 -62.586 -67.065  0.00  0.00    +0.000 A 
ATOM     12  C   UNL     1     -60.549 -65.685 -69.331  0.00  0.00    +0.000 A 
ATOM     13  C   UNL     1     -59.310 -61.760 -64.877  0.00  0.00    +0.000 A 
ATOM     14  C   UNL     1     -58.849 -63.950 -69.207  0.00  0.00    +0.000 A 
ATOM     15  C   UNL     1     -61.012 -65.308 -67.957  0.00  0.00    +0.000 A 
ATOM     16  C   UNL     1     -58.226 -60.854 -65.057  0.00  0.00    +0.000 A 
ATOM     17  C   UNL     1     -61.270 -66.810 -69.986  0.00  0.00    +0.000 C 
ATOM     18  C   UNL     1     -57.498 -60.895 -66.291  0.00  0.00    +0.000 A 
ATOM     19  C   UNL     1     -60.183 -66.122 -72.072  0.00  0.00    +0.000 C 
ATOM     20  C   UNL     1     -56.751 -59.062 -64.313  0.00  0.00    +0.000 A 
ATOM     21  C   UNL     1     -57.829 -59.914 -64.081  0.00  0.00    +0.000 A 
ATOM     22  C   UNL     1     -56.444 -60.012 -66.487  0.00  0.00    +0.000 A 
ATOM     23  C   UNL     1     -56.063 -59.087 -65.515  0.00  0.00    +0.000 A 
ENDROOT
BRANCH  10  24
ATOM     24  O   UNL     1     -58.593 -64.304 -71.993  0.00  0.00    +0.000 OA
ATOM     25  H   UNL     1     -58.116 -64.635 -72.780  0.00  0.00    +0.000 HD
ENDBRANCH  10  24
BRANCH  10  26
ATOM     26  C   UNL     1     -57.854 -66.450 -71.141  0.00  0.00    +0.000 C 
ATOM     27  C   UNL     1     -56.563 -65.985 -71.809  0.00  0.00    +0.000 C 
ENDBRANCH  10  26
BRANCH  13  28
ATOM     28  C   UNL     1     -60.140 -61.819 -63.617  0.00  0.00    +0.000 C 
ATOM     29  C   UNL     1     -61.386 -60.951 -63.710  0.00  0.00    +0.000 C 
ENDBRANCH  13  28
BRANCH  20  30
ATOM     30  O   UNL     1     -56.411 -58.116 -63.346  0.00  0.00    +0.000 OA
BRANCH  30  38
ATOM     31  O   UNL     1     -55.489 -59.727 -61.961  0.00  0.00    +0.000 OA
ATOM     32  N   UNL     1     -56.531 -57.886 -61.050  0.00  0.00    +0.000 N 
ATOM     33  C   UNL     1     -58.239 -56.909 -58.884  0.00  0.00    +0.000 C 
ATOM     34  C   UNL     1     -58.476 -56.549 -60.372  0.00  0.00    +0.000 C 
ATOM     35  C   UNL     1     -57.494 -58.267 -58.824  0.00  0.00    +0.000 C 
ATOM     36  C   UNL     1     -57.195 -56.603 -61.200  0.00  0.00    +0.000 C 
ATOM     37  C   UNL     1     -56.235 -58.280 -59.686  0.00  0.00    +0.000 C 
ATOM     38  C   UNL     1     -56.090 -58.666 -62.109  0.00  0.00    +0.000 C 
BRANCH  33  39
ATOM     39  N   UNL     1     -59.516 -56.941 -58.102  0.00  0.00    +0.000 NA
ATOM     40  C   UNL     1     -59.344 -56.401 -56.737  0.00  0.00    +0.000 C 
ATOM     41  C   UNL     1     -60.610 -56.226 -58.791  0.00  0.00    +0.000 C 
ATOM     42  C   UNL     1     -60.631 -56.453 -55.911  0.00  0.00    +0.000 C 
ATOM     43  C   UNL     1     -61.930 -56.272 -58.017  0.00  0.00    +0.000 C 
ATOM     44  C   UNL     1     -61.769 -55.728 -56.609  0.00  0.00    +0.000 C 
ENDBRANCH  33  39
ENDBRANCH  30  38
ENDBRANCH  20  30
TORSDOF 6
ENDMDL
