MODEL 1
REMARK VINA RESULT:      -7.0      0.000      0.000
REMARK  Name = 
REMARK  8 active torsions:
REMARK  status: ('A' for Active; 'I' for Inactive)
REMARK    1  A    between atoms: O_1  and  C_21
REMARK    2  A    between atoms: O_1  and  C_38
REMARK    3  A    between atoms: O_4  and  C_26
REMARK    4  A    between atoms: N_7  and  C_11
REMARK    5  A    between atoms: C_26  and  C_33
REMARK    6  A    between atoms: C_29  and  C_37
REMARK    7  A    between atoms: C_33  and  C_42
REMARK    8  A    between atoms: C_37  and  C_43
REMARK                            x       y       z     vdW  Elec       q    Type
REMARK                         _______ _______ _______ _____ _____    ______ ____
ROOT
ATOM      1  O   UNL     1     -59.840 -45.966 -41.238  0.00  0.00    +0.000 OA
ATOM      2  O   UNL     1     -63.079 -43.924 -42.996  0.00  0.00    +0.000 OA
ATOM      3  O   UNL     1     -58.481 -47.713 -41.628  0.00  0.00    +0.000 OA
ATOM      4  N   UNL     1     -62.391 -44.484 -45.113  0.00  0.00    +0.000 N 
ATOM      5  N   UNL     1     -61.313 -45.302 -48.434  0.00  0.00    +0.000 NA
ATOM      6  C   UNL     1     -61.463 -45.050 -45.963  0.00  0.00    +0.000 A 
ATOM      7  C   UNL     1     -63.165 -44.231 -47.283  0.00  0.00    +0.000 A 
ATOM      8  C   UNL     1     -63.526 -43.930 -45.857  0.00  0.00    +0.000 C 
ATOM      9  C   UNL     1     -60.115 -45.635 -44.053  0.00  0.00    +0.000 A 
ATOM     10  C   UNL     1     -58.842 -46.227 -43.502  0.00  0.00    +0.000 C 
ATOM     11  C   UNL     1     -61.943 -44.892 -47.331  0.00  0.00    +0.000 A 
ATOM     12  C   UNL     1     -61.017 -45.084 -43.217  0.00  0.00    +0.000 A 
ATOM     13  C   UNL     1     -63.833 -43.954 -48.468  0.00  0.00    +0.000 A 
ATOM     14  C   UNL     1     -60.347 -45.616 -45.493  0.00  0.00    +0.000 A 
ATOM     15  C   UNL     1     -62.263 -44.444 -43.749  0.00  0.00    +0.000 A 
ATOM     16  C   UNL     1     -63.195 -44.358 -49.677  0.00  0.00    +0.000 A 
ATOM     17  C   UNL     1     -60.839 -45.054 -41.740  0.00  0.00    +0.000 C 
ATOM     18  C   UNL     1     -61.935 -45.033 -49.592  0.00  0.00    +0.000 A 
ATOM     19  C   UNL     1     -59.059 -46.710 -42.051  0.00  0.00    +0.000 C 
ATOM     20  C   UNL     1     -63.063 -44.535 -52.104  0.00  0.00    +0.000 A 
ATOM     21  C   UNL     1     -63.743 -44.126 -50.958  0.00  0.00    +0.000 A 
ATOM     22  C   UNL     1     -61.304 -45.442 -50.761  0.00  0.00    +0.000 A 
ATOM     23  C   UNL     1     -61.856 -45.208 -52.020  0.00  0.00    +0.000 A 
ENDROOT
BRANCH  10  24
ATOM     24  O   UNL     1     -58.475 -47.358 -44.305  0.00  0.00    +0.000 OA
ATOM     25  H   UNL     1     -57.915 -47.010 -45.028  0.00  0.00    +0.000 HD
ENDBRANCH  10  24
BRANCH  10  26
ATOM     26  C   UNL     1     -57.700 -45.189 -43.547  0.00  0.00    +0.000 C 
ATOM     27  C   UNL     1     -56.523 -45.580 -44.437  0.00  0.00    +0.000 C 
ENDBRANCH  10  26
BRANCH  13  28
ATOM     28  C   UNL     1     -65.154 -43.225 -48.431  0.00  0.00    +0.000 C 
ATOM     29  C   UNL     1     -66.333 -44.180 -48.320  0.00  0.00    +0.000 C 
ENDBRANCH  13  28
BRANCH  20  30
ATOM     30  O   UNL     1     -63.651 -44.329 -53.352  0.00  0.00    +0.000 OA
BRANCH  30  38
ATOM     31  O   UNL     1     -64.166 -46.587 -53.403  0.00  0.00    +0.000 OA
ATOM     32  N   UNL     1     -64.429 -45.304 -55.297  0.00  0.00    +0.000 N 
ATOM     33  C   UNL     1     -64.181 -45.230 -58.212  0.00  0.00    +0.000 C 
ATOM     34  C   UNL     1     -63.643 -44.106 -57.291  0.00  0.00    +0.000 C 
ATOM     35  C   UNL     1     -64.214 -46.550 -57.401  0.00  0.00    +0.000 C 
ATOM     36  C   UNL     1     -64.400 -44.017 -55.969  0.00  0.00    +0.000 C 
ATOM     37  C   UNL     1     -64.960 -46.405 -56.079  0.00  0.00    +0.000 C 
ATOM     38  C   UNL     1     -64.090 -45.499 -53.966  0.00  0.00    +0.000 C 
BRANCH  33  39
ATOM     39  N   UNL     1     -63.373 -45.366 -59.465  0.00  0.00    +0.000 NA
ATOM     40  C   UNL     1     -62.145 -44.543 -59.425  0.00  0.00    +0.000 C 
ATOM     41  C   UNL     1     -63.025 -46.773 -59.755  0.00  0.00    +0.000 C 
ATOM     42  C   UNL     1     -61.320 -44.645 -60.710  0.00  0.00    +0.000 C 
ATOM     43  C   UNL     1     -62.221 -46.932 -61.048  0.00  0.00    +0.000 C 
ATOM     44  C   UNL     1     -60.960 -46.086 -61.027  0.00  0.00    +0.000 C 
ENDBRANCH  33  39
ENDBRANCH  30  38
ENDBRANCH  20  30
TORSDOF 6
ENDMDL
MODEL 2
REMARK VINA RESULT:      -6.9     12.576     16.909
REMARK  Name = 
REMARK  8 active torsions:
REMARK  status: ('A' for Active; 'I' for Inactive)
REMARK    1  A    between atoms: O_1  and  C_21
REMARK    2  A    between atoms: O_1  and  C_38
REMARK    3  A    between atoms: O_4  and  C_26
REMARK    4  A    between atoms: N_7  and  C_11
REMARK    5  A    between atoms: C_26  and  C_33
REMARK    6  A    between atoms: C_29  and  C_37
REMARK    7  A    between atoms: C_33  and  C_42
REMARK    8  A    between atoms: C_37  and  C_43
REMARK                            x       y       z     vdW  Elec       q    Type
REMARK                         _______ _______ _______ _____ _____    ______ ____
ROOT
ATOM      1  O   UNL     1     -70.356 -54.817 -58.121  0.00  0.00    +0.000 OA
ATOM      2  O   UNL     1     -67.645 -55.650 -55.006  0.00  0.00    +0.000 OA
ATOM      3  O   UNL     1     -70.402 -53.912 -60.177  0.00  0.00    +0.000 OA
ATOM      4  N   UNL     1     -65.897 -55.876 -56.475  0.00  0.00    +0.000 N 
ATOM      5  N   UNL     1     -63.156 -56.284 -58.753  0.00  0.00    +0.000 NA
ATOM      6  C   UNL     1     -65.415 -55.934 -57.767  0.00  0.00    +0.000 A 
ATOM      7  C   UNL     1     -63.609 -56.229 -56.366  0.00  0.00    +0.000 A 
ATOM      8  C   UNL     1     -64.820 -56.052 -55.497  0.00  0.00    +0.000 C 
ATOM      9  C   UNL     1     -67.652 -55.579 -58.587  0.00  0.00    +0.000 A 
ATOM     10  C   UNL     1     -68.597 -55.467 -59.757  0.00  0.00    +0.000 C 
ATOM     11  C   UNL     1     -63.975 -56.159 -57.705  0.00  0.00    +0.000 A 
ATOM     12  C   UNL     1     -68.130 -55.521 -57.328  0.00  0.00    +0.000 A 
ATOM     13  C   UNL     1     -62.277 -56.443 -56.038  0.00  0.00    +0.000 A 
ATOM     14  C   UNL     1     -66.229 -55.797 -58.818  0.00  0.00    +0.000 A 
ATOM     15  C   UNL     1     -67.215 -55.683 -56.154  0.00  0.00    +0.000 A 
ATOM     16  C   UNL     1     -61.363 -56.599 -57.120  0.00  0.00    +0.000 A 
ATOM     17  C   UNL     1     -69.571 -55.317 -57.019  0.00  0.00    +0.000 C 
ATOM     18  C   UNL     1     -61.866 -56.504 -58.458  0.00  0.00    +0.000 A 
ATOM     19  C   UNL     1     -69.847 -54.648 -59.360  0.00  0.00    +0.000 C 
ATOM     20  C   UNL     1     -59.144 -56.998 -58.043  0.00  0.00    +0.000 A 
ATOM     21  C   UNL     1     -59.984 -56.843 -56.942  0.00  0.00    +0.000 A 
ATOM     22  C   UNL     1     -60.987 -56.644 -59.525  0.00  0.00    +0.000 A 
ATOM     23  C   UNL     1     -59.626 -56.884 -59.336  0.00  0.00    +0.000 A 
ENDROOT
BRANCH  10  24
ATOM     24  O   UNL     1     -67.929 -54.782 -60.825  0.00  0.00    +0.000 OA
ATOM     25  H   UNL     1     -67.818 -53.856 -60.529  0.00  0.00    +0.000 HD
ENDBRANCH  10  24
BRANCH  10  26
ATOM     26  C   UNL     1     -69.020 -56.869 -60.247  0.00  0.00    +0.000 C 
ATOM     27  C   UNL     1     -68.037 -57.524 -61.213  0.00  0.00    +0.000 C 
ENDBRANCH  10  26
BRANCH  13  28
ATOM     28  C   UNL     1     -61.868 -56.535 -54.588  0.00  0.00    +0.000 C 
ATOM     29  C   UNL     1     -61.942 -57.960 -54.060  0.00  0.00    +0.000 C 
ENDBRANCH  13  28
BRANCH  20  30
ATOM     30  O   UNL     1     -57.778 -57.195 -57.833  0.00  0.00    +0.000 OA
BRANCH  30  38
ATOM     31  O   UNL     1     -57.630 -59.476 -57.454  0.00  0.00    +0.000 OA
ATOM     32  N   UNL     1     -57.008 -57.993 -55.806  0.00  0.00    +0.000 N 
ATOM     33  C   UNL     1     -56.999 -57.449 -52.931  0.00  0.00    +0.000 C 
ATOM     34  C   UNL     1     -57.425 -56.398 -53.986  0.00  0.00    +0.000 C 
ATOM     35  C   UNL     1     -57.246 -58.860 -53.522  0.00  0.00    +0.000 C 
ATOM     36  C   UNL     1     -56.775 -56.635 -55.346  0.00  0.00    +0.000 C 
ATOM     37  C   UNL     1     -56.598 -59.041 -54.891  0.00  0.00    +0.000 C 
ATOM     38  C   UNL     1     -57.483 -58.320 -57.067  0.00  0.00    +0.000 C 
BRANCH  33  39
ATOM     39  N   UNL     1     -57.712 -57.259 -51.628  0.00  0.00    +0.000 NA
ATOM     40  C   UNL     1     -58.615 -56.088 -51.655  0.00  0.00    +0.000 C 
ATOM     41  C   UNL     1     -58.465 -58.465 -51.222  0.00  0.00    +0.000 C 
ATOM     42  C   UNL     1     -59.330 -55.859 -50.322  0.00  0.00    +0.000 C 
ATOM     43  C   UNL     1     -59.179 -58.295 -49.879  0.00  0.00    +0.000 C 
ATOM     44  C   UNL     1     -60.104 -57.092 -49.887  0.00  0.00    +0.000 C 
ENDBRANCH  33  39
ENDBRANCH  30  38
ENDBRANCH  20  30
TORSDOF 6
ENDMDL
MODEL 3
REMARK VINA RESULT:      -6.8     17.990     24.503
REMARK  Name = 
REMARK  8 active torsions:
REMARK  status: ('A' for Active; 'I' for Inactive)
REMARK    1  A    between atoms: O_1  and  C_21
REMARK    2  A    between atoms: O_1  and  C_38
REMARK    3  A    between atoms: O_4  and  C_26
REMARK    4  A    between atoms: N_7  and  C_11
REMARK    5  A    between atoms: C_26  and  C_33
REMARK    6  A    between atoms: C_29  and  C_37
REMARK    7  A    between atoms: C_33  and  C_42
REMARK    8  A    between atoms: C_37  and  C_43
REMARK                            x       y       z     vdW  Elec       q    Type
REMARK                         _______ _______ _______ _____ _____    ______ ____
ROOT
ATOM      1  O   UNL     1     -68.666 -55.840 -43.458  0.00  0.00    +0.000 OA
ATOM      2  O   UNL     1     -71.695 -54.982 -40.658  0.00  0.00    +0.000 OA
ATOM      3  O   UNL     1     -66.429 -56.011 -43.588  0.00  0.00    +0.000 OA
ATOM      4  N   UNL     1     -70.431 -55.787 -38.919  0.00  0.00    +0.000 N 
ATOM      5  N   UNL     1     -68.498 -57.085 -36.191  0.00  0.00    +0.000 NA
ATOM      6  C   UNL     1     -69.298 -56.422 -38.452  0.00  0.00    +0.000 A 
ATOM      7  C   UNL     1     -70.598 -55.937 -36.612  0.00  0.00    +0.000 A 
ATOM      8  C   UNL     1     -71.332 -55.431 -37.820  0.00  0.00    +0.000 C 
ATOM      9  C   UNL     1     -68.500 -56.601 -40.719  0.00  0.00    +0.000 A 
ATOM     10  C   UNL     1     -67.454 -57.098 -41.685  0.00  0.00    +0.000 C 
ATOM     11  C   UNL     1     -69.398 -56.522 -37.001  0.00  0.00    +0.000 A 
ATOM     12  C   UNL     1     -69.604 -55.982 -41.182  0.00  0.00    +0.000 A 
ATOM     13  C   UNL     1     -70.933 -55.908 -35.266  0.00  0.00    +0.000 A 
ATOM     14  C   UNL     1     -68.340 -56.834 -39.288  0.00  0.00    +0.000 A 
ATOM     15  C   UNL     1     -70.679 -55.529 -40.242  0.00  0.00    +0.000 A 
ATOM     16  C   UNL     1     -70.013 -56.510 -34.359  0.00  0.00    +0.000 A 
ATOM     17  C   UNL     1     -69.841 -55.725 -42.629  0.00  0.00    +0.000 C 
ATOM     18  C   UNL     1     -68.808 -57.079 -34.885  0.00  0.00    +0.000 A 
ATOM     19  C   UNL     1     -67.473 -56.250 -42.978  0.00  0.00    +0.000 C 
ATOM     20  C   UNL     1     -69.294 -57.189 -32.132  0.00  0.00    +0.000 A 
ATOM     21  C   UNL     1     -70.228 -56.575 -32.965  0.00  0.00    +0.000 A 
ATOM     22  C   UNL     1     -67.896 -57.662 -34.014  0.00  0.00    +0.000 A 
ATOM     23  C   UNL     1     -68.119 -57.718 -32.638  0.00  0.00    +0.000 A 
ENDROOT
BRANCH  10  24
ATOM     24  O   UNL     1     -66.163 -56.964 -41.075  0.00  0.00    +0.000 OA
ATOM     25  H   UNL     1     -66.145 -56.075 -40.667  0.00  0.00    +0.000 HD
ENDBRANCH  10  24
BRANCH  10  26
ATOM     26  C   UNL     1     -67.696 -58.584 -42.027  0.00  0.00    +0.000 C 
ATOM     27  C   UNL     1     -66.651 -59.541 -41.461  0.00  0.00    +0.000 C 
ENDBRANCH  10  26
BRANCH  13  28
ATOM     28  C   UNL     1     -72.239 -55.288 -34.831  0.00  0.00    +0.000 C 
ATOM     29  C   UNL     1     -73.387 -56.286 -34.864  0.00  0.00    +0.000 C 
ENDBRANCH  13  28
BRANCH  20  30
ATOM     30  O   UNL     1     -69.515 -57.199 -30.754  0.00  0.00    +0.000 OA
BRANCH  30  38
ATOM     31  O   UNL     1     -70.229 -55.010 -30.495  0.00  0.00    +0.000 OA
ATOM     32  N   UNL     1     -71.494 -56.741 -29.652  0.00  0.00    +0.000 N 
ATOM     33  C   UNL     1     -73.202 -57.627 -27.448  0.00  0.00    +0.000 C 
ATOM     34  C   UNL     1     -72.051 -58.491 -28.022  0.00  0.00    +0.000 C 
ATOM     35  C   UNL     1     -72.870 -56.136 -27.712  0.00  0.00    +0.000 C 
ATOM     36  C   UNL     1     -71.741 -58.162 -29.480  0.00  0.00    +0.000 C 
ATOM     37  C   UNL     1     -72.544 -55.861 -29.177  0.00  0.00    +0.000 C 
ATOM     38  C   UNL     1     -70.397 -56.214 -30.319  0.00  0.00    +0.000 C 
BRANCH  33  39
ATOM     39  N   UNL     1     -73.435 -57.896 -25.994  0.00  0.00    +0.000 NA
ATOM     40  C   UNL     1     -72.279 -58.567 -25.361  0.00  0.00    +0.000 C 
ATOM     41  C   UNL     1     -73.774 -56.667 -25.246  0.00  0.00    +0.000 C 
ATOM     42  C   UNL     1     -72.510 -58.878 -23.881  0.00  0.00    +0.000 C 
ATOM     43  C   UNL     1     -74.041 -56.930 -23.762  0.00  0.00    +0.000 C 
ATOM     44  C   UNL     1     -72.866 -57.626 -23.098  0.00  0.00    +0.000 C 
ENDBRANCH  33  39
ENDBRANCH  30  38
ENDBRANCH  20  30
TORSDOF 6
ENDMDL
MODEL 4
REMARK VINA RESULT:      -6.8     31.468     38.774
REMARK  Name = 
REMARK  8 active torsions:
REMARK  status: ('A' for Active; 'I' for Inactive)
REMARK    1  A    between atoms: O_1  and  C_21
REMARK    2  A    between atoms: O_1  and  C_38
REMARK    3  A    between atoms: O_4  and  C_26
REMARK    4  A    between atoms: N_7  and  C_11
REMARK    5  A    between atoms: C_26  and  C_33
REMARK    6  A    between atoms: C_29  and  C_37
REMARK    7  A    between atoms: C_33  and  C_42
REMARK    8  A    between atoms: C_37  and  C_43
REMARK                            x       y       z     vdW  Elec       q    Type
REMARK                         _______ _______ _______ _____ _____    ______ ____
ROOT
ATOM      1  O   UNL     1     -66.957 -68.085 -12.129  0.00  0.00    +0.000 OA
ATOM      2  O   UNL     1     -66.010 -64.756  -9.726  0.00  0.00    +0.000 OA
ATOM      3  O   UNL     1     -67.818 -68.573 -14.146  0.00  0.00    +0.000 OA
ATOM      4  N   UNL     1     -65.637 -63.432 -11.563  0.00  0.00    +0.000 N 
ATOM      5  N   UNL     1     -64.998 -61.353 -14.415  0.00  0.00    +0.000 NA
ATOM      6  C   UNL     1     -65.518 -63.280 -12.930  0.00  0.00    +0.000 A 
ATOM      7  C   UNL     1     -65.134 -61.210 -11.993  0.00  0.00    +0.000 A 
ATOM      8  C   UNL     1     -65.410 -62.162 -10.866  0.00  0.00    +0.000 C 
ATOM      9  C   UNL     1     -66.005 -65.625 -13.201  0.00  0.00    +0.000 A 
ATOM     10  C   UNL     1     -66.155 -66.816 -14.114  0.00  0.00    +0.000 C 
ATOM     11  C   UNL     1     -65.200 -61.884 -13.207  0.00  0.00    +0.000 A 
ATOM     12  C   UNL     1     -66.122 -65.780 -11.868  0.00  0.00    +0.000 A 
ATOM     13  C   UNL     1     -64.838 -59.854 -11.987  0.00  0.00    +0.000 A 
ATOM     14  C   UNL     1     -65.687 -64.315 -13.759  0.00  0.00    +0.000 A 
ATOM     15  C   UNL     1     -65.924 -64.619 -10.942  0.00  0.00    +0.000 A 
ATOM     16  C   UNL     1     -64.598 -59.240 -13.250  0.00  0.00    +0.000 A 
ATOM     17  C   UNL     1     -66.429 -67.088 -11.229  0.00  0.00    +0.000 C 
ATOM     18  C   UNL     1     -64.697 -60.045 -14.431  0.00  0.00    +0.000 A 
ATOM     19  C   UNL     1     -67.064 -67.881 -13.459  0.00  0.00    +0.000 C 
ATOM     20  C   UNL     1     -64.031 -57.337 -14.663  0.00  0.00    +0.000 A 
ATOM     21  C   UNL     1     -64.266 -57.876 -13.399  0.00  0.00    +0.000 A 
ATOM     22  C   UNL     1     -64.476 -59.460 -15.671  0.00  0.00    +0.000 A 
ATOM     23  C   UNL     1     -64.150 -58.110 -15.806  0.00  0.00    +0.000 A 
ENDROOT
BRANCH  10  24
ATOM     24  O   UNL     1     -66.770 -66.386 -15.336  0.00  0.00    +0.000 OA
ATOM     25  H   UNL     1     -67.454 -67.053 -15.547  0.00  0.00    +0.000 HD
ENDBRANCH  10  24
BRANCH  10  26
ATOM     26  C   UNL     1     -64.774 -67.427 -14.436  0.00  0.00    +0.000 C 
ATOM     27  C   UNL     1     -64.556 -67.756 -15.910  0.00  0.00    +0.000 C 
ENDBRANCH  10  26
BRANCH  13  28
ATOM     28  C   UNL     1     -64.750 -59.112 -10.675  0.00  0.00    +0.000 C 
ATOM     29  C   UNL     1     -66.122 -58.745 -10.130  0.00  0.00    +0.000 C 
ENDBRANCH  13  28
BRANCH  20  30
ATOM     30  O   UNL     1     -63.748 -55.976 -14.780  0.00  0.00    +0.000 OA
BRANCH  30  38
ATOM     31  O   UNL     1     -65.774 -55.311 -15.684  0.00  0.00    +0.000 OA
ATOM     32  N   UNL     1     -63.802 -54.655 -16.675  0.00  0.00    +0.000 N 
ATOM     33  C   UNL     1     -62.430 -54.143 -19.209  0.00  0.00    +0.000 C 
ATOM     34  C   UNL     1     -61.803 -54.978 -18.064  0.00  0.00    +0.000 C 
ATOM     35  C   UNL     1     -63.973 -54.231 -19.087  0.00  0.00    +0.000 C 
ATOM     36  C   UNL     1     -62.350 -54.597 -16.691  0.00  0.00    +0.000 C 
ATOM     37  C   UNL     1     -64.470 -53.865 -17.692  0.00  0.00    +0.000 C 
ATOM     38  C   UNL     1     -64.547 -55.313 -15.708  0.00  0.00    +0.000 C 
BRANCH  33  39
ATOM     39  N   UNL     1     -61.953 -54.588 -20.556  0.00  0.00    +0.000 NA
ATOM     40  C   UNL     1     -62.153 -53.547 -21.587  0.00  0.00    +0.000 C 
ATOM     41  C   UNL     1     -60.537 -55.010 -20.536  0.00  0.00    +0.000 C 
ATOM     42  C   UNL     1     -61.699 -53.994 -22.979  0.00  0.00    +0.000 C 
ATOM     43  C   UNL     1     -60.041 -55.493 -21.901  0.00  0.00    +0.000 C 
ATOM     44  C   UNL     1     -60.246 -54.438 -22.974  0.00  0.00    +0.000 C 
ENDBRANCH  33  39
ENDBRANCH  30  38
ENDBRANCH  20  30
TORSDOF 6
ENDMDL
MODEL 5
REMARK VINA RESULT:      -6.6      7.294     10.313
REMARK  Name = 
REMARK  8 active torsions:
REMARK  status: ('A' for Active; 'I' for Inactive)
REMARK    1  A    between atoms: O_1  and  C_21
REMARK    2  A    between atoms: O_1  and  C_38
REMARK    3  A    between atoms: O_4  and  C_26
REMARK    4  A    between atoms: N_7  and  C_11
REMARK    5  A    between atoms: C_26  and  C_33
REMARK    6  A    between atoms: C_29  and  C_37
REMARK    7  A    between atoms: C_33  and  C_42
REMARK    8  A    between atoms: C_37  and  C_43
REMARK                            x       y       z     vdW  Elec       q    Type
REMARK                         _______ _______ _______ _____ _____    ______ ____
ROOT
ATOM      1  O   UNL     1     -65.690 -45.201 -39.582  0.00  0.00    +0.000 OA
ATOM      2  O   UNL     1     -63.265 -43.694 -42.680  0.00  0.00    +0.000 OA
ATOM      3  O   UNL     1     -66.019 -47.088 -38.406  0.00  0.00    +0.000 OA
ATOM      4  N   UNL     1     -61.539 -45.102 -42.127  0.00  0.00    +0.000 N 
ATOM      5  N   UNL     1     -58.807 -47.257 -41.255  0.00  0.00    +0.000 NA
ATOM      6  C   UNL     1     -60.981 -46.045 -41.288  0.00  0.00    +0.000 A 
ATOM      7  C   UNL     1     -59.442 -45.641 -42.955  0.00  0.00    +0.000 A 
ATOM      8  C   UNL     1     -60.634 -44.772 -43.232  0.00  0.00    +0.000 C 
ATOM      9  C   UNL     1     -62.970 -45.970 -39.930  0.00  0.00    +0.000 A 
ATOM     10  C   UNL     1     -63.711 -46.424 -38.697  0.00  0.00    +0.000 C 
ATOM     11  C   UNL     1     -59.659 -46.387 -41.803  0.00  0.00    +0.000 A 
ATOM     12  C   UNL     1     -63.520 -45.049 -40.745  0.00  0.00    +0.000 A 
ATOM     13  C   UNL     1     -58.242 -45.783 -43.638  0.00  0.00    +0.000 A 
ATOM     14  C   UNL     1     -61.637 -46.492 -40.213  0.00  0.00    +0.000 A 
ATOM     15  C   UNL     1     -62.778 -44.546 -41.944  0.00  0.00    +0.000 A 
ATOM     16  C   UNL     1     -57.290 -46.689 -43.087  0.00  0.00    +0.000 A 
ATOM     17  C   UNL     1     -64.868 -44.462 -40.509  0.00  0.00    +0.000 C 
ATOM     18  C   UNL     1     -57.635 -47.400 -41.892  0.00  0.00    +0.000 A 
ATOM     19  C   UNL     1     -65.236 -46.278 -38.904  0.00  0.00    +0.000 C 
ATOM     20  C   UNL     1     -55.127 -47.811 -43.062  0.00  0.00    +0.000 A 
ATOM     21  C   UNL     1     -56.019 -46.922 -43.657  0.00  0.00    +0.000 A 
ATOM     22  C   UNL     1     -56.722 -48.293 -41.347  0.00  0.00    +0.000 A 
ATOM     23  C   UNL     1     -55.470 -48.516 -41.921  0.00  0.00    +0.000 A 
ENDROOT
BRANCH  10  24
ATOM     24  O   UNL     1     -63.417 -47.809 -38.468  0.00  0.00    +0.000 OA
ATOM     25  H   UNL     1     -62.741 -47.831 -37.761  0.00  0.00    +0.000 HD
ENDBRANCH  10  24
BRANCH  10  26
ATOM     26  C   UNL     1     -63.265 -45.607 -37.466  0.00  0.00    +0.000 C 
ATOM     27  C   UNL     1     -62.564 -46.423 -36.384  0.00  0.00    +0.000 C 
ENDBRANCH  10  26
BRANCH  13  28
ATOM     28  C   UNL     1     -57.987 -44.969 -44.883  0.00  0.00    +0.000 C 
ATOM     29  C   UNL     1     -58.448 -45.687 -46.142  0.00  0.00    +0.000 C 
ENDBRANCH  13  28
BRANCH  20  30
ATOM     30  O   UNL     1     -53.897 -48.052 -43.675  0.00  0.00    +0.000 OA
BRANCH  30  38
ATOM     31  O   UNL     1     -52.891 -46.012 -43.239  0.00  0.00    +0.000 OA
ATOM     32  N   UNL     1     -52.927 -46.841 -45.387  0.00  0.00    +0.000 N 
ATOM     33  C   UNL     1     -53.195 -46.176 -48.224  0.00  0.00    +0.000 C 
ATOM     34  C   UNL     1     -53.968 -47.340 -47.555  0.00  0.00    +0.000 C 
ATOM     35  C   UNL     1     -52.865 -45.121 -47.137  0.00  0.00    +0.000 C 
ATOM     36  C   UNL     1     -53.245 -47.898 -46.332  0.00  0.00    +0.000 C 
ATOM     37  C   UNL     1     -52.166 -45.730 -45.926  0.00  0.00    +0.000 C 
ATOM     38  C   UNL     1     -53.209 -46.895 -44.031  0.00  0.00    +0.000 C 
BRANCH  33  39
ATOM     39  N   UNL     1     -53.956 -45.578 -49.366  0.00  0.00    +0.000 NA
ATOM     40  C   UNL     1     -53.950 -46.455 -50.557  0.00  0.00    +0.000 C 
ATOM     41  C   UNL     1     -55.347 -45.243 -48.996  0.00  0.00    +0.000 C 
ATOM     42  C   UNL     1     -54.697 -45.848 -51.746  0.00  0.00    +0.000 C 
ATOM     43  C   UNL     1     -56.131 -44.607 -50.146  0.00  0.00    +0.000 C 
ATOM     44  C   UNL     1     -56.128 -45.491 -51.380  0.00  0.00    +0.000 C 
ENDBRANCH  33  39
ENDBRANCH  30  38
ENDBRANCH  20  30
TORSDOF 6
ENDMDL
MODEL 6
REMARK VINA RESULT:      -6.6     26.651     31.092
REMARK  Name = 
REMARK  8 active torsions:
REMARK  status: ('A' for Active; 'I' for Inactive)
REMARK    1  A    between atoms: O_1  and  C_21
REMARK    2  A    between atoms: O_1  and  C_38
REMARK    3  A    between atoms: O_4  and  C_26
REMARK    4  A    between atoms: N_7  and  C_11
REMARK    5  A    between atoms: C_26  and  C_33
REMARK    6  A    between atoms: C_29  and  C_37
REMARK    7  A    between atoms: C_33  and  C_42
REMARK    8  A    between atoms: C_37  and  C_43
REMARK                            x       y       z     vdW  Elec       q    Type
REMARK                         _______ _______ _______ _____ _____    ______ ____
ROOT
ATOM      1  O   UNL     1     -68.308 -61.874 -70.720  0.00  0.00    +0.000 OA
ATOM      2  O   UNL     1     -69.190 -59.364 -73.986  0.00  0.00    +0.000 OA
ATOM      3  O   UNL     1     -67.180 -63.758 -70.242  0.00  0.00    +0.000 OA
ATOM      4  N   UNL     1     -67.226 -59.909 -75.043  0.00  0.00    +0.000 N 
ATOM      5  N   UNL     1     -64.142 -60.705 -76.692  0.00  0.00    +0.000 NA
ATOM      6  C   UNL     1     -66.003 -60.548 -75.047  0.00  0.00    +0.000 A 
ATOM      7  C   UNL     1     -66.196 -59.463 -77.070  0.00  0.00    +0.000 A 
ATOM      8  C   UNL     1     -67.452 -59.184 -76.296  0.00  0.00    +0.000 C 
ATOM      9  C   UNL     1     -66.465 -61.383 -72.834  0.00  0.00    +0.000 A 
ATOM     10  C   UNL     1     -66.006 -62.155 -71.622  0.00  0.00    +0.000 C 
ATOM     11  C   UNL     1     -65.349 -60.269 -76.320  0.00  0.00    +0.000 A 
ATOM     12  C   UNL     1     -67.661 -60.762 -72.823  0.00  0.00    +0.000 A 
ATOM     13  C   UNL     1     -65.797 -59.051 -78.334  0.00  0.00    +0.000 A 
ATOM     14  C   UNL     1     -65.594 -61.270 -73.999  0.00  0.00    +0.000 A 
ATOM     15  C   UNL     1     -68.111 -59.948 -73.997  0.00  0.00    +0.000 A 
ATOM     16  C   UNL     1     -64.510 -59.476 -78.774  0.00  0.00    +0.000 A 
ATOM     17  C   UNL     1     -68.593 -60.822 -71.664  0.00  0.00    +0.000 C 
ATOM     18  C   UNL     1     -63.731 -60.307 -77.906  0.00  0.00    +0.000 A 
ATOM     19  C   UNL     1     -67.224 -62.673 -70.824  0.00  0.00    +0.000 C 
ATOM     20  C   UNL     1     -62.690 -59.558 -80.393  0.00  0.00    +0.000 A 
ATOM     21  C   UNL     1     -63.961 -59.119 -80.026  0.00  0.00    +0.000 A 
ATOM     22  C   UNL     1     -62.478 -60.738 -78.324  0.00  0.00    +0.000 A 
ATOM     23  C   UNL     1     -61.947 -60.380 -79.563  0.00  0.00    +0.000 A 
ENDROOT
BRANCH  10  24
ATOM     24  O   UNL     1     -65.239 -63.285 -72.059  0.00  0.00    +0.000 OA
ATOM     25  H   UNL     1     -65.797 -63.761 -72.706  0.00  0.00    +0.000 HD
ENDBRANCH  10  24
BRANCH  10  26
ATOM     26  C   UNL     1     -65.122 -61.268 -70.719  0.00  0.00    +0.000 C 
ATOM     27  C   UNL     1     -65.796 -60.808 -69.430  0.00  0.00    +0.000 C 
ENDBRANCH  10  26
BRANCH  13  28
ATOM     28  C   UNL     1     -66.702 -58.164 -79.155  0.00  0.00    +0.000 C 
ATOM     29  C   UNL     1     -66.563 -56.697 -78.778  0.00  0.00    +0.000 C 
ENDBRANCH  13  28
BRANCH  20  30
ATOM     30  O   UNL     1     -62.194 -59.224 -81.653  0.00  0.00    +0.000 OA
BRANCH  30  38
ATOM     31  O   UNL     1     -60.387 -57.852 -81.185  0.00  0.00    +0.000 OA
ATOM     32  N   UNL     1     -62.200 -57.015 -82.332  0.00  0.00    +0.000 N 
ATOM     33  C   UNL     1     -63.941 -54.697 -82.730  0.00  0.00    +0.000 C 
ATOM     34  C   UNL     1     -64.484 -56.134 -82.532  0.00  0.00    +0.000 C 
ATOM     35  C   UNL     1     -62.552 -54.602 -82.049  0.00  0.00    +0.000 C 
ATOM     36  C   UNL     1     -63.489 -57.204 -82.975  0.00  0.00    +0.000 C 
ATOM     37  C   UNL     1     -61.602 -55.705 -82.505  0.00  0.00    +0.000 C 
ATOM     38  C   UNL     1     -61.497 -58.019 -81.682  0.00  0.00    +0.000 C 
BRANCH  33  39
ATOM     39  N   UNL     1     -64.888 -53.661 -82.209  0.00  0.00    +0.000 NA
ATOM     40  C   UNL     1     -65.994 -54.261 -81.434  0.00  0.00    +0.000 C 
ATOM     41  C   UNL     1     -64.202 -52.636 -81.395  0.00  0.00    +0.000 C 
ATOM     42  C   UNL     1     -66.991 -53.220 -80.918  0.00  0.00    +0.000 C 
ATOM     43  C   UNL     1     -65.153 -51.554 -80.877  0.00  0.00    +0.000 C 
ATOM     44  C   UNL     1     -66.301 -52.154 -80.084  0.00  0.00    +0.000 C 
ENDBRANCH  33  39
ENDBRANCH  30  38
ENDBRANCH  20  30
TORSDOF 6
ENDMDL
MODEL 7
REMARK VINA RESULT:      -6.6     26.291     28.839
REMARK  Name = 
REMARK  8 active torsions:
REMARK  status: ('A' for Active; 'I' for Inactive)
REMARK    1  A    between atoms: O_1  and  C_21
REMARK    2  A    between atoms: O_1  and  C_38
REMARK    3  A    between atoms: O_4  and  C_26
REMARK    4  A    between atoms: N_7  and  C_11
REMARK    5  A    between atoms: C_26  and  C_33
REMARK    6  A    between atoms: C_29  and  C_37
REMARK    7  A    between atoms: C_33  and  C_42
REMARK    8  A    between atoms: C_37  and  C_43
REMARK                            x       y       z     vdW  Elec       q    Type
REMARK                         _______ _______ _______ _____ _____    ______ ____
ROOT
ATOM      1  O   UNL     1     -50.473 -46.855 -73.017  0.00  0.00    +0.000 OA
ATOM      2  O   UNL     1     -52.909 -44.607 -75.617  0.00  0.00    +0.000 OA
ATOM      3  O   UNL     1     -50.585 -48.635 -71.649  0.00  0.00    +0.000 OA
ATOM      4  N   UNL     1     -54.225 -46.426 -76.091  0.00  0.00    +0.000 N 
ATOM      5  N   UNL     1     -56.270 -49.263 -76.888  0.00  0.00    +0.000 NA
ATOM      6  C   UNL     1     -54.492 -47.775 -75.982  0.00  0.00    +0.000 A 
ATOM      7  C   UNL     1     -56.150 -46.872 -77.304  0.00  0.00    +0.000 A 
ATOM      8  C   UNL     1     -55.230 -45.750 -76.918  0.00  0.00    +0.000 C 
ATOM      9  C   UNL     1     -52.536 -48.020 -74.597  0.00  0.00    +0.000 A 
ATOM     10  C   UNL     1     -51.602 -48.919 -73.826  0.00  0.00    +0.000 C 
ATOM     11  C   UNL     1     -55.702 -48.063 -76.745  0.00  0.00    +0.000 A 
ATOM     12  C   UNL     1     -52.269 -46.703 -74.699  0.00  0.00    +0.000 A 
ATOM     13  C   UNL     1     -57.295 -46.880 -78.088  0.00  0.00    +0.000 A 
ATOM     14  C   UNL     1     -53.701 -48.583 -75.270  0.00  0.00    +0.000 A 
ATOM     15  C   UNL     1     -53.155 -45.803 -75.504  0.00  0.00    +0.000 A 
ATOM     16  C   UNL     1     -57.933 -48.139 -78.285  0.00  0.00    +0.000 A 
ATOM     17  C   UNL     1     -51.092 -46.063 -74.052  0.00  0.00    +0.000 C 
ATOM     18  C   UNL     1     -57.372 -49.296 -77.653  0.00  0.00    +0.000 A 
ATOM     19  C   UNL     1     -50.865 -48.115 -72.731  0.00  0.00    +0.000 C 
ATOM     20  C   UNL     1     -59.662 -49.568 -79.238  0.00  0.00    +0.000 A 
ATOM     21  C   UNL     1     -59.092 -48.307 -79.074  0.00  0.00    +0.000 A 
ATOM     22  C   UNL     1     -57.987 -50.529 -77.827  0.00  0.00    +0.000 A 
ATOM     23  C   UNL     1     -59.133 -50.682 -78.608  0.00  0.00    +0.000 A 
ENDROOT
BRANCH  10  24
ATOM     24  O   UNL     1     -52.374 -49.947 -73.189  0.00  0.00    +0.000 OA
ATOM     25  H   UNL     1     -52.305 -50.736 -73.764  0.00  0.00    +0.000 HD
ENDBRANCH  10  24
BRANCH  10  26
ATOM     26  C   UNL     1     -50.579 -49.577 -74.776  0.00  0.00    +0.000 C 
ATOM     27  C   UNL     1     -50.870 -51.038 -75.107  0.00  0.00    +0.000 C 
ENDBRANCH  10  26
BRANCH  13  28
ATOM     28  C   UNL     1     -57.786 -45.596 -78.712  0.00  0.00    +0.000 C 
ATOM     29  C   UNL     1     -58.742 -44.843 -77.799  0.00  0.00    +0.000 C 
ENDBRANCH  13  28
BRANCH  20  30
ATOM     30  O   UNL     1     -60.832 -49.693 -79.988  0.00  0.00    +0.000 OA
BRANCH  30  38
ATOM     31  O   UNL     1     -62.402 -49.874 -78.295  0.00  0.00    +0.000 OA
ATOM     32  N   UNL     1     -62.242 -51.521 -79.897  0.00  0.00    +0.000 N 
ATOM     33  C   UNL     1     -62.380 -54.397 -80.420  0.00  0.00    +0.000 C 
ATOM     34  C   UNL     1     -61.237 -53.497 -80.953  0.00  0.00    +0.000 C 
ATOM     35  C   UNL     1     -62.956 -53.744 -79.138  0.00  0.00    +0.000 C 
ATOM     36  C   UNL     1     -61.666 -52.042 -81.124  0.00  0.00    +0.000 C 
ATOM     37  C   UNL     1     -63.348 -52.285 -79.352  0.00  0.00    +0.000 C 
ATOM     38  C   UNL     1     -61.871 -50.321 -79.308  0.00  0.00    +0.000 C 
BRANCH  33  39
ATOM     39  N   UNL     1     -61.921 -55.800 -80.171  0.00  0.00    +0.000 NA
ATOM     40  C   UNL     1     -62.991 -56.640 -79.593  0.00  0.00    +0.000 C 
ATOM     41  C   UNL     1     -61.385 -56.438 -81.392  0.00  0.00    +0.000 C 
ATOM     42  C   UNL     1     -62.533 -58.071 -79.302  0.00  0.00    +0.000 C 
ATOM     43  C   UNL     1     -60.887 -57.864 -81.147  0.00  0.00    +0.000 C 
ATOM     44  C   UNL     1     -61.973 -58.739 -80.546  0.00  0.00    +0.000 C 
ENDBRANCH  33  39
ENDBRANCH  30  38
ENDBRANCH  20  30
TORSDOF 6
ENDMDL
MODEL 8
REMARK VINA RESULT:      -6.6     31.434     35.292
REMARK  Name = 
REMARK  8 active torsions:
REMARK  status: ('A' for Active; 'I' for Inactive)
REMARK    1  A    between atoms: O_1  and  C_21
REMARK    2  A    between atoms: O_1  and  C_38
REMARK    3  A    between atoms: O_4  and  C_26
REMARK    4  A    between atoms: N_7  and  C_11
REMARK    5  A    between atoms: C_26  and  C_33
REMARK    6  A    between atoms: C_29  and  C_37
REMARK    7  A    between atoms: C_33  and  C_42
REMARK    8  A    between atoms: C_37  and  C_43
REMARK                            x       y       z     vdW  Elec       q    Type
REMARK                         _______ _______ _______ _____ _____    ______ ____
ROOT
ATOM      1  O   UNL     1     -55.706 -68.604 -70.860  0.00  0.00    +0.000 OA
ATOM      2  O   UNL     1     -52.048 -69.124 -72.885  0.00  0.00    +0.000 OA
ATOM      3  O   UNL     1     -56.918 -66.994 -69.866  0.00  0.00    +0.000 OA
ATOM      4  N   UNL     1     -52.075 -66.965 -73.662  0.00  0.00    +0.000 N 
ATOM      5  N   UNL     1     -52.116 -63.610 -74.930  0.00  0.00    +0.000 NA
ATOM      6  C   UNL     1     -52.714 -65.751 -73.810  0.00  0.00    +0.000 A 
ATOM      7  C   UNL     1     -50.678 -65.567 -74.872  0.00  0.00    +0.000 A 
ATOM      8  C   UNL     1     -50.759 -66.955 -74.305  0.00  0.00    +0.000 C 
ATOM      9  C   UNL     1     -54.588 -66.618 -72.567  0.00  0.00    +0.000 A 
ATOM     10  C   UNL     1     -55.979 -66.419 -72.020  0.00  0.00    +0.000 C 
ATOM     11  C   UNL     1     -51.840 -64.867 -74.574  0.00  0.00    +0.000 A 
ATOM     12  C   UNL     1     -53.969 -67.806 -72.418  0.00  0.00    +0.000 A 
ATOM     13  C   UNL     1     -49.678 -64.940 -75.603  0.00  0.00    +0.000 A 
ATOM     14  C   UNL     1     -53.931 -65.540 -73.298  0.00  0.00    +0.000 A 
ATOM     15  C   UNL     1     -52.609 -68.040 -73.001  0.00  0.00    +0.000 A 
ATOM     16  C   UNL     1     -49.928 -63.601 -76.022  0.00  0.00    +0.000 A 
ATOM     17  C   UNL     1     -54.585 -68.954 -71.699  0.00  0.00    +0.000 C 
ATOM     18  C   UNL     1     -51.169 -62.989 -75.649  0.00  0.00    +0.000 A 
ATOM     19  C   UNL     1     -56.219 -67.356 -70.814  0.00  0.00    +0.000 C 
ATOM     20  C   UNL     1     -49.325 -61.542 -77.177  0.00  0.00    +0.000 A 
ATOM     21  C   UNL     1     -49.015 -62.844 -76.788  0.00  0.00    +0.000 A 
ATOM     22  C   UNL     1     -51.424 -61.681 -76.040  0.00  0.00    +0.000 A 
ATOM     23  C   UNL     1     -50.513 -60.943 -76.796  0.00  0.00    +0.000 A 
ENDROOT
BRANCH  10  24
ATOM     24  O   UNL     1     -56.108 -65.063 -71.571  0.00  0.00    +0.000 OA
ATOM     25  H   UNL     1     -56.193 -64.516 -72.377  0.00  0.00    +0.000 HD
ENDBRANCH  10  24
BRANCH  10  26
ATOM     26  C   UNL     1     -57.034 -66.688 -73.114  0.00  0.00    +0.000 C 
ATOM     27  C   UNL     1     -58.249 -65.766 -73.062  0.00  0.00    +0.000 C 
ENDBRANCH  10  26
BRANCH  13  28
ATOM     28  C   UNL     1     -48.416 -65.693 -75.946  0.00  0.00    +0.000 C 
ATOM     29  C   UNL     1     -47.356 -65.562 -74.862  0.00  0.00    +0.000 C 
ENDBRANCH  13  28
BRANCH  20  30
ATOM     30  O   UNL     1     -48.383 -60.806 -77.897  0.00  0.00    +0.000 OA
BRANCH  30  38
ATOM     31  O   UNL     1     -49.529 -59.941 -79.715  0.00  0.00    +0.000 OA
ATOM     32  N   UNL     1     -47.897 -61.534 -80.036  0.00  0.00    +0.000 N 
ATOM     33  C   UNL     1     -47.094 -63.887 -81.579  0.00  0.00    +0.000 C 
ATOM     34  C   UNL     1     -46.997 -63.818 -80.034  0.00  0.00    +0.000 C 
ATOM     35  C   UNL     1     -48.210 -62.915 -82.040  0.00  0.00    +0.000 C 
ATOM     36  C   UNL     1     -46.844 -62.390 -79.518  0.00  0.00    +0.000 C 
ATOM     37  C   UNL     1     -48.028 -61.508 -81.480  0.00  0.00    +0.000 C 
ATOM     38  C   UNL     1     -48.675 -60.693 -79.253  0.00  0.00    +0.000 C 
BRANCH  33  39
ATOM     39  N   UNL     1     -47.335 -65.282 -82.066  0.00  0.00    +0.000 NA
ATOM     40  C   UNL     1     -46.131 -65.864 -82.696  0.00  0.00    +0.000 C 
ATOM     41  C   UNL     1     -47.821 -66.173 -80.992  0.00  0.00    +0.000 C 
ATOM     42  C   UNL     1     -46.366 -67.280 -83.229  0.00  0.00    +0.000 C 
ATOM     43  C   UNL     1     -48.097 -67.597 -81.481  0.00  0.00    +0.000 C 
ATOM     44  C   UNL     1     -46.873 -68.208 -82.138  0.00  0.00    +0.000 C 
ENDBRANCH  33  39
ENDBRANCH  30  38
ENDBRANCH  20  30
TORSDOF 6
ENDMDL
MODEL 9
REMARK VINA RESULT:      -6.5     17.952     24.677
REMARK  Name = 
REMARK  8 active torsions:
REMARK  status: ('A' for Active; 'I' for Inactive)
REMARK    1  A    between atoms: O_1  and  C_21
REMARK    2  A    between atoms: O_1  and  C_38
REMARK    3  A    between atoms: O_4  and  C_26
REMARK    4  A    between atoms: N_7  and  C_11
REMARK    5  A    between atoms: C_26  and  C_33
REMARK    6  A    between atoms: C_29  and  C_37
REMARK    7  A    between atoms: C_33  and  C_42
REMARK    8  A    between atoms: C_37  and  C_43
REMARK                            x       y       z     vdW  Elec       q    Type
REMARK                         _______ _______ _______ _____ _____    ______ ____
ROOT
ATOM      1  O   UNL     1     -70.059 -54.858 -43.653  0.00  0.00    +0.000 OA
ATOM      2  O   UNL     1     -67.299 -56.764 -41.104  0.00  0.00    +0.000 OA
ATOM      3  O   UNL     1     -72.263 -54.453 -43.821  0.00  0.00    +0.000 OA
ATOM      4  N   UNL     1     -68.612 -56.384 -39.260  0.00  0.00    +0.000 N 
ATOM      5  N   UNL     1     -70.620 -55.760 -36.355  0.00  0.00    +0.000 NA
ATOM      6  C   UNL     1     -69.722 -55.810 -38.675  0.00  0.00    +0.000 A 
ATOM      7  C   UNL     1     -68.589 -56.924 -37.006  0.00  0.00    +0.000 A 
ATOM      8  C   UNL     1     -67.815 -57.124 -38.277  0.00  0.00    +0.000 C 
ATOM      9  C   UNL     1     -70.351 -54.910 -40.820  0.00  0.00    +0.000 A 
ATOM     10  C   UNL     1     -71.289 -54.062 -41.641  0.00  0.00    +0.000 C 
ATOM     11  C   UNL     1     -69.712 -56.145 -37.256  0.00  0.00    +0.000 A 
ATOM     12  C   UNL     1     -69.268 -55.468 -41.398  0.00  0.00    +0.000 A 
ATOM     13  C   UNL     1     -68.348 -57.372 -35.715  0.00  0.00    +0.000 A 
ATOM     14  C   UNL     1     -70.588 -55.088 -39.392  0.00  0.00    +0.000 A 
ATOM     15  C   UNL     1     -68.296 -56.270 -40.589  0.00  0.00    +0.000 A 
ATOM     16  C   UNL     1     -69.279 -56.977 -34.711  0.00  0.00    +0.000 A 
ATOM     17  C   UNL     1     -68.955 -55.315 -42.845  0.00  0.00    +0.000 C 
ATOM     18  C   UNL     1     -70.399 -56.172 -35.097  0.00  0.00    +0.000 A 
ATOM     19  C   UNL     1     -71.248 -54.497 -43.124  0.00  0.00    +0.000 C 
ATOM     20  C   UNL     1     -70.092 -56.909 -32.415  0.00  0.00    +0.000 A 
ATOM     21  C   UNL     1     -69.154 -57.338 -33.352  0.00  0.00    +0.000 A 
ATOM     22  C   UNL     1     -71.321 -55.786 -34.132  0.00  0.00    +0.000 A 
ATOM     23  C   UNL     1     -71.187 -56.150 -32.792  0.00  0.00    +0.000 A 
ENDROOT
BRANCH  10  24
ATOM     24  O   UNL     1     -72.625 -54.247 -41.152  0.00  0.00    +0.000 OA
ATOM     25  H   UNL     1     -73.039 -54.914 -41.737  0.00  0.00    +0.000 HD
ENDBRANCH  10  24
BRANCH  10  26
ATOM     26  C   UNL     1     -70.914 -52.569 -41.520  0.00  0.00    +0.000 C 
ATOM     27  C   UNL     1     -72.107 -51.622 -41.429  0.00  0.00    +0.000 C 
ENDBRANCH  10  26
BRANCH  13  28
ATOM     28  C   UNL     1     -67.125 -58.208 -35.428  0.00  0.00    +0.000 C 
ATOM     29  C   UNL     1     -67.345 -59.679 -35.751  0.00  0.00    +0.000 C 
ENDBRANCH  13  28
BRANCH  20  30
ATOM     30  O   UNL     1     -69.964 -57.319 -31.087  0.00  0.00    +0.000 OA
BRANCH  30  38
ATOM     31  O   UNL     1     -70.098 -55.291 -29.976  0.00  0.00    +0.000 OA
ATOM     32  N   UNL     1     -71.590 -56.974 -29.482  0.00  0.00    +0.000 N 
ATOM     33  C   UNL     1     -73.104 -58.309 -27.363  0.00  0.00    +0.000 C 
ATOM     34  C   UNL     1     -72.288 -59.081 -28.431  0.00  0.00    +0.000 C 
ATOM     35  C   UNL     1     -72.477 -56.902 -27.195  0.00  0.00    +0.000 C 
ATOM     36  C   UNL     1     -72.135 -58.298 -29.732  0.00  0.00    +0.000 C 
ATOM     37  C   UNL     1     -72.321 -56.169 -28.523  0.00  0.00    +0.000 C 
ATOM     38  C   UNL     1     -70.515 -56.430 -30.169  0.00  0.00    +0.000 C 
BRANCH  33  39
ATOM     39  N   UNL     1     -73.170 -59.048 -26.063  0.00  0.00    +0.000 NA
ATOM     40  C   UNL     1     -72.148 -60.113 -25.978  0.00  0.00    +0.000 C 
ATOM     41  C   UNL     1     -73.053 -58.145 -24.900  0.00  0.00    +0.000 C 
ATOM     42  C   UNL     1     -72.219 -60.902 -24.668  0.00  0.00    +0.000 C 
ATOM     43  C   UNL     1     -73.146 -58.883 -23.562  0.00  0.00    +0.000 C 
ATOM     44  C   UNL     1     -72.107 -59.986 -23.461  0.00  0.00    +0.000 C 
ENDBRANCH  33  39
ENDBRANCH  30  38
ENDBRANCH  20  30
TORSDOF 6
ENDMDL
