MODEL 1
REMARK VINA RESULT:      -5.0      0.000      0.000
REMARK  Name = 
REMARK  4 active torsions:
REMARK  status: ('A' for Active; 'I' for Inactive)
REMARK    1  A    between atoms: C_1  and  C_6
REMARK    2  A    between atoms: C_1  and  C_7
REMARK    3  A    between atoms: C_9  and  C_14
REMARK    4  A    between atoms: C_11  and  C_15
REMARK                            x       y       z     vdW  Elec       q    Type
REMARK                         _______ _______ _______ _____ _____    ______ ____
ROOT
ATOM      1  C   UNL     1     -60.044 -55.012 -60.089  0.00  0.00    +0.000 C 
ATOM      2  C   UNL     1     -59.928 -56.460 -59.620  0.00  0.00    +0.000 C 
ATOM      3  C   UNL     1     -60.473 -55.409 -58.686  0.00  0.00    +0.000 C 
ATOM      4  C   UNL     1     -58.612 -57.070 -59.441  0.00  0.00    +0.000 C 
ATOM      5  C   UNL     1     -59.746 -55.032 -57.434  0.00  0.00    +0.000 C 
ATOM      6  C   UNL     1     -58.815 -54.156 -60.288  0.00  0.00    +0.000 C 
ATOM      7  C   UNL     1     -61.141 -54.698 -61.077  0.00  0.00    +0.000 C 
ATOM      8  C   UNL     1     -57.890 -57.300 -58.328  0.00  0.00    +0.000 C 
ATOM      9  C   UNL     1     -57.876 -57.552 -60.677  0.00  0.00    +0.000 C 
ATOM     10  C   UNL     1     -59.511 -56.267 -56.565  0.00  0.00    +0.000 C 
ATOM     11  C   UNL     1     -58.191 -56.999 -56.877  0.00  0.00    +0.000 C 
ATOM     12  C   UNL     1     -56.562 -57.924 -58.673  0.00  0.00    +0.000 C 
ATOM     13  C   UNL     1     -56.439 -57.671 -60.170  0.00  0.00    +0.000 C 
ATOM     14  C   UNL     1     -58.420 -58.884 -61.189  0.00  0.00    +0.000 C 
ATOM     15  C   UNL     1     -58.135 -58.281 -56.034  0.00  0.00    +0.000 C 
ENDROOT
TORSDOF 0
ENDMDL
MODEL 2
REMARK VINA RESULT:      -5.0      1.680      4.134
REMARK  Name = 
REMARK  4 active torsions:
REMARK  status: ('A' for Active; 'I' for Inactive)
REMARK    1  A    between atoms: C_1  and  C_6
REMARK    2  A    between atoms: C_1  and  C_7
REMARK    3  A    between atoms: C_9  and  C_14
REMARK    4  A    between atoms: C_11  and  C_15
REMARK                            x       y       z     vdW  Elec       q    Type
REMARK                         _______ _______ _______ _____ _____    ______ ____
ROOT
ATOM      1  C   UNL     1     -61.616 -57.121 -56.242  0.00  0.00    +0.000 C 
ATOM      2  C   UNL     1     -60.504 -56.144 -56.613  0.00  0.00    +0.000 C 
ATOM      3  C   UNL     1     -61.850 -56.042 -57.286  0.00  0.00    +0.000 C 
ATOM      4  C   UNL     1     -59.309 -56.621 -57.304  0.00  0.00    +0.000 C 
ATOM      5  C   UNL     1     -62.004 -56.295 -58.753  0.00  0.00    +0.000 C 
ATOM      6  C   UNL     1     -61.551 -58.572 -56.658  0.00  0.00    +0.000 C 
ATOM      7  C   UNL     1     -62.278 -56.928 -54.899  0.00  0.00    +0.000 C 
ATOM      8  C   UNL     1     -58.955 -56.556 -58.602  0.00  0.00    +0.000 C 
ATOM      9  C   UNL     1     -58.240 -57.316 -56.483  0.00  0.00    +0.000 C 
ATOM     10  C   UNL     1     -61.079 -55.376 -59.550  0.00  0.00    +0.000 C 
ATOM     11  C   UNL     1     -59.678 -55.971 -59.794  0.00  0.00    +0.000 C 
ATOM     12  C   UNL     1     -57.628 -57.235 -58.828  0.00  0.00    +0.000 C 
ATOM     13  C   UNL     1     -57.434 -58.050 -57.556  0.00  0.00    +0.000 C 
ATOM     14  C   UNL     1     -57.384 -56.328 -55.694  0.00  0.00    +0.000 C 
ATOM     15  C   UNL     1     -58.813 -54.908 -60.486  0.00  0.00    +0.000 C 
ENDROOT
TORSDOF 0
ENDMDL
MODEL 3
REMARK VINA RESULT:      -4.8      1.084      3.789
REMARK  Name = 
REMARK  4 active torsions:
REMARK  status: ('A' for Active; 'I' for Inactive)
REMARK    1  A    between atoms: C_1  and  C_6
REMARK    2  A    between atoms: C_1  and  C_7
REMARK    3  A    between atoms: C_9  and  C_14
REMARK    4  A    between atoms: C_11  and  C_15
REMARK                            x       y       z     vdW  Elec       q    Type
REMARK                         _______ _______ _______ _____ _____    ______ ____
ROOT
ATOM      1  C   UNL     1     -57.775 -58.315 -60.992  0.00  0.00    +0.000 C 
ATOM      2  C   UNL     1     -57.617 -57.031 -60.184  0.00  0.00    +0.000 C 
ATOM      3  C   UNL     1     -56.949 -58.299 -59.717  0.00  0.00    +0.000 C 
ATOM      4  C   UNL     1     -58.769 -56.447 -59.501  0.00  0.00    +0.000 C 
ATOM      5  C   UNL     1     -57.349 -58.960 -58.435  0.00  0.00    +0.000 C 
ATOM      6  C   UNL     1     -59.091 -59.056 -61.030  0.00  0.00    +0.000 C 
ATOM      7  C   UNL     1     -57.019 -58.402 -62.296  0.00  0.00    +0.000 C 
ATOM      8  C   UNL     1     -59.141 -56.485 -58.207  0.00  0.00    +0.000 C 
ATOM      9  C   UNL     1     -59.756 -55.646 -60.328  0.00  0.00    +0.000 C 
ATOM     10  C   UNL     1     -57.219 -57.979 -57.270  0.00  0.00    +0.000 C 
ATOM     11  C   UNL     1     -58.495 -57.152 -57.014  0.00  0.00    +0.000 C 
ATOM     12  C   UNL     1     -60.444 -55.754 -58.005  0.00  0.00    +0.000 C 
ATOM     13  C   UNL     1     -60.987 -55.616 -59.421  0.00  0.00    +0.000 C 
ATOM     14  C   UNL     1     -59.240 -54.245 -60.646  0.00  0.00    +0.000 C 
ATOM     15  C   UNL     1     -58.195 -56.124 -55.913  0.00  0.00    +0.000 C 
ENDROOT
TORSDOF 0
ENDMDL
MODEL 4
REMARK VINA RESULT:      -4.8      2.192      4.008
REMARK  Name = 
REMARK  4 active torsions:
REMARK  status: ('A' for Active; 'I' for Inactive)
REMARK    1  A    between atoms: C_1  and  C_6
REMARK    2  A    between atoms: C_1  and  C_7
REMARK    3  A    between atoms: C_9  and  C_14
REMARK    4  A    between atoms: C_11  and  C_15
REMARK                            x       y       z     vdW  Elec       q    Type
REMARK                         _______ _______ _______ _____ _____    ______ ____
ROOT
ATOM      1  C   UNL     1     -61.704 -56.545 -56.975  0.00  0.00    +0.000 C 
ATOM      2  C   UNL     1     -61.866 -56.689 -58.485  0.00  0.00    +0.000 C 
ATOM      3  C   UNL     1     -62.192 -57.850 -57.580  0.00  0.00    +0.000 C 
ATOM      4  C   UNL     1     -60.692 -56.669 -59.355  0.00  0.00    +0.000 C 
ATOM      5  C   UNL     1     -61.397 -59.117 -57.628  0.00  0.00    +0.000 C 
ATOM      6  C   UNL     1     -60.334 -56.472 -56.341  0.00  0.00    +0.000 C 
ATOM      7  C   UNL     1     -62.727 -55.701 -56.253  0.00  0.00    +0.000 C 
ATOM      8  C   UNL     1     -60.020 -57.672 -59.953  0.00  0.00    +0.000 C 
ATOM      9  C   UNL     1     -60.072 -55.326 -59.685  0.00  0.00    +0.000 C 
ATOM     10  C   UNL     1     -61.398 -59.691 -59.044  0.00  0.00    +0.000 C 
ATOM     11  C   UNL     1     -60.247 -59.166 -59.924  0.00  0.00    +0.000 C 
ATOM     12  C   UNL     1     -58.840 -57.138 -60.724  0.00  0.00    +0.000 C 
ATOM     13  C   UNL     1     -58.681 -55.724 -60.179  0.00  0.00    +0.000 C 
ATOM     14  C   UNL     1     -60.866 -54.569 -60.747  0.00  0.00    +0.000 C 
ATOM     15  C   UNL     1     -60.434 -59.715 -61.346  0.00  0.00    +0.000 C 
ENDROOT
TORSDOF 0
ENDMDL
MODEL 5
REMARK VINA RESULT:      -4.8      7.003      9.241
REMARK  Name = 
REMARK  4 active torsions:
REMARK  status: ('A' for Active; 'I' for Inactive)
REMARK    1  A    between atoms: C_1  and  C_6
REMARK    2  A    between atoms: C_1  and  C_7
REMARK    3  A    between atoms: C_9  and  C_14
REMARK    4  A    between atoms: C_11  and  C_15
REMARK                            x       y       z     vdW  Elec       q    Type
REMARK                         _______ _______ _______ _____ _____    ______ ____
ROOT
ATOM      1  C   UNL     1     -55.261 -57.858 -68.906  0.00  0.00    +0.000 C 
ATOM      2  C   UNL     1     -54.326 -58.388 -67.823  0.00  0.00    +0.000 C 
ATOM      3  C   UNL     1     -55.632 -59.090 -68.097  0.00  0.00    +0.000 C 
ATOM      4  C   UNL     1     -54.088 -57.606 -66.612  0.00  0.00    +0.000 C 
ATOM      5  C   UNL     1     -56.718 -59.137 -67.068  0.00  0.00    +0.000 C 
ATOM      6  C   UNL     1     -56.026 -56.569 -68.715  0.00  0.00    +0.000 C 
ATOM      7  C   UNL     1     -54.844 -58.082 -70.340  0.00  0.00    +0.000 C 
ATOM      8  C   UNL     1     -54.593 -57.727 -65.369  0.00  0.00    +0.000 C 
ATOM      9  C   UNL     1     -53.116 -56.445 -66.693  0.00  0.00    +0.000 C 
ATOM     10  C   UNL     1     -56.192 -59.749 -65.770  0.00  0.00    +0.000 C 
ATOM     11  C   UNL     1     -55.587 -58.714 -64.800  0.00  0.00    +0.000 C 
ATOM     12  C   UNL     1     -54.062 -56.641 -64.469  0.00  0.00    +0.000 C 
ATOM     13  C   UNL     1     -53.479 -55.632 -65.450  0.00  0.00    +0.000 C 
ATOM     14  C   UNL     1     -51.661 -56.907 -66.675  0.00  0.00    +0.000 C 
ATOM     15  C   UNL     1     -54.985 -59.464 -63.603  0.00  0.00    +0.000 C 
ENDROOT
TORSDOF 0
ENDMDL
MODEL 6
REMARK VINA RESULT:      -4.7      2.157      4.785
REMARK  Name = 
REMARK  4 active torsions:
REMARK  status: ('A' for Active; 'I' for Inactive)
REMARK    1  A    between atoms: C_1  and  C_6
REMARK    2  A    between atoms: C_1  and  C_7
REMARK    3  A    between atoms: C_9  and  C_14
REMARK    4  A    between atoms: C_11  and  C_15
REMARK                            x       y       z     vdW  Elec       q    Type
REMARK                         _______ _______ _______ _____ _____    ______ ____
ROOT
ATOM      1  C   UNL     1     -60.696 -59.440 -59.191  0.00  0.00    +0.000 C 
ATOM      2  C   UNL     1     -61.280 -58.056 -59.454  0.00  0.00    +0.000 C 
ATOM      3  C   UNL     1     -60.212 -58.606 -60.365  0.00  0.00    +0.000 C 
ATOM      4  C   UNL     1     -61.033 -56.964 -58.515  0.00  0.00    +0.000 C 
ATOM      5  C   UNL     1     -58.863 -57.964 -60.455  0.00  0.00    +0.000 C 
ATOM      6  C   UNL     1     -59.781 -59.691 -58.014  0.00  0.00    +0.000 C 
ATOM      7  C   UNL     1     -61.574 -60.627 -59.510  0.00  0.00    +0.000 C 
ATOM      8  C   UNL     1     -60.169 -55.932 -58.569  0.00  0.00    +0.000 C 
ATOM      9  C   UNL     1     -61.854 -56.920 -57.241  0.00  0.00    +0.000 C 
ATOM     10  C   UNL     1     -59.002 -56.490 -60.834  0.00  0.00    +0.000 C 
ATOM     11  C   UNL     1     -59.151 -55.551 -59.620  0.00  0.00    +0.000 C 
ATOM     12  C   UNL     1     -60.266 -55.089 -57.323  0.00  0.00    +0.000 C 
ATOM     13  C   UNL     1     -61.028 -55.987 -56.356  0.00  0.00    +0.000 C 
ATOM     14  C   UNL     1     -63.265 -56.389 -57.481  0.00  0.00    +0.000 C 
ATOM     15  C   UNL     1     -59.409 -54.128 -60.135  0.00  0.00    +0.000 C 
ENDROOT
TORSDOF 0
ENDMDL
MODEL 7
REMARK VINA RESULT:      -4.7      1.989      4.527
REMARK  Name = 
REMARK  4 active torsions:
REMARK  status: ('A' for Active; 'I' for Inactive)
REMARK    1  A    between atoms: C_1  and  C_6
REMARK    2  A    between atoms: C_1  and  C_7
REMARK    3  A    between atoms: C_9  and  C_14
REMARK    4  A    between atoms: C_11  and  C_15
REMARK                            x       y       z     vdW  Elec       q    Type
REMARK                         _______ _______ _______ _____ _____    ______ ____
ROOT
ATOM      1  C   UNL     1     -57.919 -57.189 -56.400  0.00  0.00    +0.000 C 
ATOM      2  C   UNL     1     -58.902 -56.028 -56.514  0.00  0.00    +0.000 C 
ATOM      3  C   UNL     1     -58.892 -56.884 -55.273  0.00  0.00    +0.000 C 
ATOM      4  C   UNL     1     -59.982 -56.074 -57.498  0.00  0.00    +0.000 C 
ATOM      5  C   UNL     1     -60.067 -57.735 -54.909  0.00  0.00    +0.000 C 
ATOM      6  C   UNL     1     -58.091 -58.441 -57.228  0.00  0.00    +0.000 C 
ATOM      7  C   UNL     1     -56.469 -56.839 -56.165  0.00  0.00    +0.000 C 
ATOM      8  C   UNL     1     -61.291 -56.360 -57.359  0.00  0.00    +0.000 C 
ATOM      9  C   UNL     1     -59.645 -55.755 -58.941  0.00  0.00    +0.000 C 
ATOM     10  C   UNL     1     -61.330 -56.880 -54.803  0.00  0.00    +0.000 C 
ATOM     11  C   UNL     1     -62.093 -56.739 -56.135  0.00  0.00    +0.000 C 
ATOM     12  C   UNL     1     -61.992 -56.314 -58.692  0.00  0.00    +0.000 C 
ATOM     13  C   UNL     1     -60.841 -56.344 -59.690  0.00  0.00    +0.000 C 
ATOM     14  C   UNL     1     -59.496 -54.254 -59.181  0.00  0.00    +0.000 C 
ATOM     15  C   UNL     1     -63.258 -55.761 -55.925  0.00  0.00    +0.000 C 
ENDROOT
TORSDOF 0
ENDMDL
MODEL 8
REMARK VINA RESULT:      -4.6     26.170     28.822
REMARK  Name = 
REMARK  4 active torsions:
REMARK  status: ('A' for Active; 'I' for Inactive)
REMARK    1  A    between atoms: C_1  and  C_6
REMARK    2  A    between atoms: C_1  and  C_7
REMARK    3  A    between atoms: C_9  and  C_14
REMARK    4  A    between atoms: C_11  and  C_15
REMARK                            x       y       z     vdW  Elec       q    Type
REMARK                         _______ _______ _______ _____ _____    ______ ____
ROOT
ATOM      1  C   UNL     1     -70.802 -56.057 -30.778  0.00  0.00    +0.000 C 
ATOM      2  C   UNL     1     -69.820 -56.079 -31.946  0.00  0.00    +0.000 C 
ATOM      3  C   UNL     1     -70.991 -55.129 -31.966  0.00  0.00    +0.000 C 
ATOM      4  C   UNL     1     -69.738 -57.251 -32.814  0.00  0.00    +0.000 C 
ATOM      5  C   UNL     1     -72.078 -55.260 -32.985  0.00  0.00    +0.000 C 
ATOM      6  C   UNL     1     -71.768 -57.197 -30.549  0.00  0.00    +0.000 C 
ATOM      7  C   UNL     1     -70.322 -55.431 -29.491  0.00  0.00    +0.000 C 
ATOM      8  C   UNL     1     -70.246 -57.478 -34.041  0.00  0.00    +0.000 C 
ATOM      9  C   UNL     1     -68.963 -58.455 -32.315  0.00  0.00    +0.000 C 
ATOM     10  C   UNL     1     -71.493 -55.214 -34.396  0.00  0.00    +0.000 C 
ATOM     11  C   UNL     1     -71.083 -56.597 -34.940  0.00  0.00    +0.000 C 
ATOM     12  C   UNL     1     -69.917 -58.874 -34.505  0.00  0.00    +0.000 C 
ATOM     13  C   UNL     1     -69.479 -59.571 -33.223  0.00  0.00    +0.000 C 
ATOM     14  C   UNL     1     -67.453 -58.262 -32.440  0.00  0.00    +0.000 C 
ATOM     15  C   UNL     1     -70.397 -56.401 -36.300  0.00  0.00    +0.000 C 
ENDROOT
TORSDOF 0
ENDMDL
MODEL 9
REMARK VINA RESULT:      -4.6      1.135      3.891
REMARK  Name = 
REMARK  4 active torsions:
REMARK  status: ('A' for Active; 'I' for Inactive)
REMARK    1  A    between atoms: C_1  and  C_6
REMARK    2  A    between atoms: C_1  and  C_7
REMARK    3  A    between atoms: C_9  and  C_14
REMARK    4  A    between atoms: C_11  and  C_15
REMARK                            x       y       z     vdW  Elec       q    Type
REMARK                         _______ _______ _______ _____ _____    ______ ____
ROOT
ATOM      1  C   UNL     1     -59.000 -57.649 -56.344  0.00  0.00    +0.000 C 
ATOM      2  C   UNL     1     -58.295 -57.079 -57.572  0.00  0.00    +0.000 C 
ATOM      3  C   UNL     1     -58.988 -56.152 -56.605  0.00  0.00    +0.000 C 
ATOM      4  C   UNL     1     -58.812 -57.355 -58.910  0.00  0.00    +0.000 C 
ATOM      5  C   UNL     1     -60.182 -55.351 -57.019  0.00  0.00    +0.000 C 
ATOM      6  C   UNL     1     -60.287 -58.429 -56.476  0.00  0.00    +0.000 C 
ATOM      7  C   UNL     1     -58.123 -58.156 -55.224  0.00  0.00    +0.000 C 
ATOM      8  C   UNL     1     -59.549 -56.598 -59.745  0.00  0.00    +0.000 C 
ATOM      9  C   UNL     1     -58.504 -58.705 -59.528  0.00  0.00    +0.000 C 
ATOM     10  C   UNL     1     -59.847 -54.491 -58.237  0.00  0.00    +0.000 C 
ATOM     11  C   UNL     1     -60.101 -55.200 -59.582  0.00  0.00    +0.000 C 
ATOM     12  C   UNL     1     -59.868 -57.354 -61.010  0.00  0.00    +0.000 C 
ATOM     13  C   UNL     1     -59.549 -58.797 -60.640  0.00  0.00    +0.000 C 
ATOM     14  C   UNL     1     -57.078 -58.781 -60.068  0.00  0.00    +0.000 C 
ATOM     15  C   UNL     1     -59.608 -54.286 -60.713  0.00  0.00    +0.000 C 
ENDROOT
TORSDOF 0
ENDMDL
