REMARK  Name = 
REMARK  4 active torsions:
REMARK  status: ('A' for Active; 'I' for Inactive)
REMARK    1  A    between atoms: C_1  and  C_6
REMARK    2  A    between atoms: C_1  and  C_7
REMARK    3  A    between atoms: C_9  and  C_14
REMARK    4  A    between atoms: C_11  and  C_15
REMARK                            x       y       z     vdW  Elec       q    Type
REMARK                         _______ _______ _______ _____ _____    ______ ____
ROOT
ATOM      1  C   UNL     1       2.268   0.184  -0.150  0.00  0.00    +0.000 C 
ATOM      2  C   UNL     1       1.036   0.197   0.750  0.00  0.00    +0.000 C 
ATOM      3  C   UNL     1       1.705  -1.111   0.411  0.00  0.00    +0.000 C 
ATOM      4  C   UNL     1      -0.265   0.583   0.208  0.00  0.00    +0.000 C 
ATOM      5  C   UNL     1       1.002  -2.155  -0.398  0.00  0.00    +0.000 C 
ATOM      6  C   UNL     1       2.158   0.478  -1.628  0.00  0.00    +0.000 C 
ATOM      7  C   UNL     1       3.560   0.685   0.450  0.00  0.00    +0.000 C 
ATOM      8  C   UNL     1      -1.317  -0.164  -0.179  0.00  0.00    +0.000 C 
ATOM      9  C   UNL     1      -0.550   2.061   0.024  0.00  0.00    +0.000 C 
ATOM     10  C   UNL     1      -0.323  -2.535   0.262  0.00  0.00    +0.000 C 
ATOM     11  C   UNL     1      -1.511  -1.663  -0.191  0.00  0.00    +0.000 C 
ATOM     12  C   UNL     1      -2.424   0.709  -0.712  0.00  0.00    +0.000 C 
ATOM     13  C   UNL     1      -1.729   2.044  -0.949  0.00  0.00    +0.000 C 
ATOM     14  C   UNL     1      -0.899   2.750   1.341  0.00  0.00    +0.000 C 
ATOM     15  C   UNL     1      -2.745  -2.058   0.633  0.00  0.00    +0.000 C 
ENDROOT
TORSDOF 0
