MODEL 1
REMARK VINA RESULT:      -6.2      0.000      0.000
REMARK  Name = JAK3_Inhibitor.pdbqt.pdb
REMARK  1 active torsions:
REMARK  status: ('A' for Active; 'I' for Inactive)
REMARK    1  A    between atoms: C_7  and  C_20
REMARK                            x       y       z     vdW  Elec       q    Type
REMARK                         _______ _______ _______ _____ _____    ______ ____
ROOT
ATOM      1  O   UNL     1     -67.624 -58.548 -73.060  0.00  0.00    +0.000 OA
ATOM      2  N   UNL     1     -66.736 -59.708 -71.229  0.00  0.00    +0.000 N 
ATOM      3  C   UNL     1     -65.391 -61.224 -72.303  0.00  0.00    +0.000 A 
ATOM      4  C   UNL     1     -65.844 -60.768 -71.063  0.00  0.00    +0.000 A 
ATOM      5  C   UNL     1     -66.047 -60.389 -73.295  0.00  0.00    +0.000 C 
ATOM      6  C   UNL     1     -64.497 -62.273 -72.391  0.00  0.00    +0.000 A 
ATOM      7  C   UNL     1     -64.043 -62.881 -71.209  0.00  0.00    +0.000 A 
ATOM      8  C   UNL     1     -66.918 -59.410 -72.575  0.00  0.00    +0.000 C 
ATOM      9  C   UNL     1     -65.429 -61.331 -69.877  0.00  0.00    +0.000 A 
ATOM     10  C   UNL     1     -65.932 -60.447 -74.583  0.00  0.00    +0.000 C 
ATOM     11  C   UNL     1     -64.524 -62.391 -69.971  0.00  0.00    +0.000 A 
ATOM     12  H   UNL     1     -67.201 -59.205 -70.486  0.00  0.00    +0.000 HD
ATOM     13  N   UNL     1     -66.524 -59.612 -76.821  0.00  0.00    +0.000 N 
ATOM     14  C   UNL     1     -65.839 -60.468 -75.998  0.00  0.00    +0.000 C 
ATOM     15  C   UNL     1     -65.085 -61.303 -76.789  0.00  0.00    +0.000 C 
ATOM     16  C   UNL     1     -66.217 -59.893 -78.126  0.00  0.00    +0.000 C 
ATOM     17  C   UNL     1     -65.325 -60.940 -78.135  0.00  0.00    +0.000 C 
ATOM     18  H   UNL     1     -67.158 -58.888 -76.511  0.00  0.00    +0.000 HD
ENDROOT
BRANCH   7  20
ATOM     19  N   UNL     1     -60.964 -64.965 -70.562  0.00  0.00    +0.000 NA
ATOM     20  C   UNL     1     -63.092 -63.998 -71.255  0.00  0.00    +0.000 A 
ATOM     21  C   UNL     1     -63.340 -65.156 -71.994  0.00  0.00    +0.000 A 
ATOM     22  C   UNL     1     -61.884 -63.974 -70.564  0.00  0.00    +0.000 A 
ATOM     23  C   UNL     1     -62.427 -66.204 -72.025  0.00  0.00    +0.000 A 
ATOM     24  C   UNL     1     -61.262 -66.058 -71.295  0.00  0.00    +0.000 A 
ENDBRANCH   7  20
TORSDOF 1
ENDMDL
MODEL 2
REMARK VINA RESULT:      -6.2      2.256      6.526
REMARK  Name = JAK3_Inhibitor.pdbqt.pdb
REMARK  1 active torsions:
REMARK  status: ('A' for Active; 'I' for Inactive)
REMARK    1  A    between atoms: C_7  and  C_20
REMARK                            x       y       z     vdW  Elec       q    Type
REMARK                         _______ _______ _______ _____ _____    ______ ____
ROOT
ATOM      1  O   UNL     1     -68.481 -59.261 -72.095  0.00  0.00    +0.000 OA
ATOM      2  N   UNL     1     -68.226 -58.791 -74.375  0.00  0.00    +0.000 N 
ATOM      3  C   UNL     1     -66.348 -60.021 -74.851  0.00  0.00    +0.000 A 
ATOM      4  C   UNL     1     -67.321 -59.164 -75.370  0.00  0.00    +0.000 A 
ATOM      5  C   UNL     1     -66.678 -60.186 -73.445  0.00  0.00    +0.000 C 
ATOM      6  C   UNL     1     -65.341 -60.523 -75.651  0.00  0.00    +0.000 A 
ATOM      7  C   UNL     1     -65.306 -60.159 -77.008  0.00  0.00    +0.000 A 
ATOM      8  C   UNL     1     -67.902 -59.377 -73.157  0.00  0.00    +0.000 C 
ATOM      9  C   UNL     1     -67.328 -58.778 -76.692  0.00  0.00    +0.000 A 
ATOM     10  C   UNL     1     -66.052 -60.894 -72.560  0.00  0.00    +0.000 C 
ATOM     11  C   UNL     1     -66.308 -59.289 -77.498  0.00  0.00    +0.000 A 
ATOM     12  H   UNL     1     -69.019 -58.179 -74.498  0.00  0.00    +0.000 HD
ATOM     13  N   UNL     1     -65.827 -61.719 -70.252  0.00  0.00    +0.000 N 
ATOM     14  C   UNL     1     -65.404 -61.655 -71.554  0.00  0.00    +0.000 C 
ATOM     15  C   UNL     1     -64.281 -62.441 -71.673  0.00  0.00    +0.000 C 
ATOM     16  C   UNL     1     -64.988 -62.534 -69.540  0.00  0.00    +0.000 C 
ATOM     17  C   UNL     1     -64.017 -62.996 -70.399  0.00  0.00    +0.000 C 
ATOM     18  H   UNL     1     -66.634 -61.238 -69.878  0.00  0.00    +0.000 HD
ENDROOT
BRANCH   7  20
ATOM     19  N   UNL     1     -63.355 -62.490 -79.244  0.00  0.00    +0.000 NA
ATOM     20  C   UNL     1     -64.254 -60.669 -77.896  0.00  0.00    +0.000 A 
ATOM     21  C   UNL     1     -63.155 -59.892 -78.268  0.00  0.00    +0.000 A 
ATOM     22  C   UNL     1     -64.286 -61.956 -78.423  0.00  0.00    +0.000 A 
ATOM     23  C   UNL     1     -62.169 -60.393 -79.111  0.00  0.00    +0.000 A 
ATOM     24  C   UNL     1     -62.317 -61.690 -79.568  0.00  0.00    +0.000 A 
ENDBRANCH   7  20
TORSDOF 1
ENDMDL
MODEL 3
REMARK VINA RESULT:      -6.0     19.961     22.520
REMARK  Name = JAK3_Inhibitor.pdbqt.pdb
REMARK  1 active torsions:
REMARK  status: ('A' for Active; 'I' for Inactive)
REMARK    1  A    between atoms: C_7  and  C_20
REMARK                            x       y       z     vdW  Elec       q    Type
REMARK                         _______ _______ _______ _____ _____    ______ ____
ROOT
ATOM      1  O   UNL     1     -66.739 -47.625 -60.343  0.00  0.00    +0.000 OA
ATOM      2  N   UNL     1     -67.467 -47.750 -58.121  0.00  0.00    +0.000 N 
ATOM      3  C   UNL     1     -65.531 -47.215 -57.012  0.00  0.00    +0.000 A 
ATOM      4  C   UNL     1     -66.877 -47.560 -56.871  0.00  0.00    +0.000 A 
ATOM      5  C   UNL     1     -65.279 -47.191 -58.444  0.00  0.00    +0.000 C 
ATOM      6  C   UNL     1     -64.737 -46.978 -55.908  0.00  0.00    +0.000 A 
ATOM      7  C   UNL     1     -65.304 -47.087 -54.627  0.00  0.00    +0.000 A 
ATOM      8  C   UNL     1     -66.551 -47.542 -59.145  0.00  0.00    +0.000 C 
ATOM      9  C   UNL     1     -67.477 -47.680 -55.637  0.00  0.00    +0.000 A 
ATOM     10  C   UNL     1     -64.167 -46.921 -59.050  0.00  0.00    +0.000 C 
ATOM     11  C   UNL     1     -66.671 -47.438 -54.523  0.00  0.00    +0.000 A 
ATOM     12  H   UNL     1     -68.431 -48.004 -58.286  0.00  0.00    +0.000 HD
ATOM     13  N   UNL     1     -62.877 -46.649 -61.128  0.00  0.00    +0.000 N 
ATOM     14  C   UNL     1     -62.975 -46.633 -59.761  0.00  0.00    +0.000 C 
ATOM     15  C   UNL     1     -61.741 -46.296 -59.253  0.00  0.00    +0.000 C 
ATOM     16  C   UNL     1     -61.598 -46.328 -61.497  0.00  0.00    +0.000 C 
ATOM     17  C   UNL     1     -60.871 -46.104 -60.351  0.00  0.00    +0.000 C 
ATOM     18  H   UNL     1     -63.634 -46.865 -61.763  0.00  0.00    +0.000 HD
ENDROOT
BRANCH   7  20
ATOM     19  N   UNL     1     -62.883 -45.459 -52.233  0.00  0.00    +0.000 NA
ATOM     20  C   UNL     1     -64.498 -46.843 -53.425  0.00  0.00    +0.000 A 
ATOM     21  C   UNL     1     -64.530 -47.699 -52.322  0.00  0.00    +0.000 A 
ATOM     22  C   UNL     1     -63.652 -45.745 -53.308  0.00  0.00    +0.000 A 
ATOM     23  C   UNL     1     -63.759 -47.451 -51.192  0.00  0.00    +0.000 A 
ATOM     24  C   UNL     1     -62.958 -46.323 -51.199  0.00  0.00    +0.000 A 
ENDBRANCH   7  20
TORSDOF 1
ENDMDL
MODEL 4
REMARK VINA RESULT:      -6.0      1.816      6.442
REMARK  Name = JAK3_Inhibitor.pdbqt.pdb
REMARK  1 active torsions:
REMARK  status: ('A' for Active; 'I' for Inactive)
REMARK    1  A    between atoms: C_7  and  C_20
REMARK                            x       y       z     vdW  Elec       q    Type
REMARK                         _______ _______ _______ _____ _____    ______ ____
ROOT
ATOM      1  O   UNL     1     -65.866 -61.092 -68.895  0.00  0.00    +0.000 OA
ATOM      2  N   UNL     1     -66.662 -60.114 -70.869  0.00  0.00    +0.000 N 
ATOM      3  C   UNL     1     -65.414 -61.241 -72.430  0.00  0.00    +0.000 A 
ATOM      4  C   UNL     1     -66.394 -60.267 -72.230  0.00  0.00    +0.000 A 
ATOM      5  C   UNL     1     -65.057 -61.718 -71.105  0.00  0.00    +0.000 C 
ATOM      6  C   UNL     1     -64.982 -61.566 -73.701  0.00  0.00    +0.000 A 
ATOM      7  C   UNL     1     -65.546 -60.900 -74.802  0.00  0.00    +0.000 A 
ATOM      8  C   UNL     1     -65.880 -60.972 -70.105  0.00  0.00    +0.000 C 
ATOM      9  C   UNL     1     -66.977 -59.587 -73.277  0.00  0.00    +0.000 A 
ATOM     10  C   UNL     1     -64.185 -62.625 -70.795  0.00  0.00    +0.000 C 
ATOM     11  C   UNL     1     -66.538 -59.919 -74.560  0.00  0.00    +0.000 A 
ATOM     12  H   UNL     1     -67.331 -59.474 -70.468  0.00  0.00    +0.000 HD
ATOM     13  N   UNL     1     -63.005 -63.964 -69.102  0.00  0.00    +0.000 N 
ATOM     14  C   UNL     1     -63.244 -63.611 -70.404  0.00  0.00    +0.000 C 
ATOM     15  C   UNL     1     -62.426 -64.371 -71.206  0.00  0.00    +0.000 C 
ATOM     16  C   UNL     1     -62.044 -64.939 -69.064  0.00  0.00    +0.000 C 
ATOM     17  C   UNL     1     -61.666 -65.211 -70.359  0.00  0.00    +0.000 C 
ATOM     18  H   UNL     1     -63.467 -63.565 -68.295  0.00  0.00    +0.000 HD
ENDROOT
BRANCH   7  20
ATOM     19  N   UNL     1     -65.136 -62.740 -78.071  0.00  0.00    +0.000 NA
ATOM     20  C   UNL     1     -65.118 -61.213 -76.170  0.00  0.00    +0.000 A 
ATOM     21  C   UNL     1     -64.308 -60.351 -76.912  0.00  0.00    +0.000 A 
ATOM     22  C   UNL     1     -65.492 -62.388 -76.815  0.00  0.00    +0.000 A 
ATOM     23  C   UNL     1     -63.913 -60.665 -78.207  0.00  0.00    +0.000 A 
ATOM     24  C   UNL     1     -64.353 -61.865 -78.736  0.00  0.00    +0.000 A 
ENDBRANCH   7  20
TORSDOF 1
ENDMDL
MODEL 5
REMARK VINA RESULT:      -6.0     44.941     47.967
REMARK  Name = JAK3_Inhibitor.pdbqt.pdb
REMARK  1 active torsions:
REMARK  status: ('A' for Active; 'I' for Inactive)
REMARK    1  A    between atoms: C_7  and  C_20
REMARK                            x       y       z     vdW  Elec       q    Type
REMARK                         _______ _______ _______ _____ _____    ______ ____
ROOT
ATOM      1  O   UNL     1     -71.855 -60.542 -29.222  0.00  0.00    +0.000 OA
ATOM      2  N   UNL     1     -72.835 -60.768 -27.106  0.00  0.00    +0.000 N 
ATOM      3  C   UNL     1     -72.701 -58.608 -26.347  0.00  0.00    +0.000 A 
ATOM      4  C   UNL     1     -73.116 -59.907 -26.045  0.00  0.00    +0.000 A 
ATOM      5  C   UNL     1     -72.129 -58.676 -27.681  0.00  0.00    +0.000 C 
ATOM      6  C   UNL     1     -72.875 -57.578 -25.444  0.00  0.00    +0.000 A 
ATOM      7  C   UNL     1     -73.480 -57.853 -24.205  0.00  0.00    +0.000 A 
ATOM      8  C   UNL     1     -72.226 -60.090 -28.156  0.00  0.00    +0.000 C 
ATOM      9  C   UNL     1     -73.713 -60.227 -24.846  0.00  0.00    +0.000 A 
ATOM     10  C   UNL     1     -71.613 -57.712 -28.374  0.00  0.00    +0.000 C 
ATOM     11  C   UNL     1     -73.887 -59.182 -23.936  0.00  0.00    +0.000 A 
ATOM     12  H   UNL     1     -73.039 -61.757 -27.134  0.00  0.00    +0.000 HD
ATOM     13  N   UNL     1     -70.530 -56.899 -30.429  0.00  0.00    +0.000 N 
ATOM     14  C   UNL     1     -71.039 -56.691 -29.174  0.00  0.00    +0.000 C 
ATOM     15  C   UNL     1     -70.886 -55.358 -28.870  0.00  0.00    +0.000 C 
ATOM     16  C   UNL     1     -70.053 -55.716 -30.928  0.00  0.00    +0.000 C 
ATOM     17  C   UNL     1     -70.262 -54.742 -29.980  0.00  0.00    +0.000 C 
ATOM     18  H   UNL     1     -70.510 -57.789 -30.909  0.00  0.00    +0.000 HD
ENDROOT
BRANCH   7  20
ATOM     19  N   UNL     1     -74.633 -54.618 -22.643  0.00  0.00    +0.000 NA
ATOM     20  C   UNL     1     -73.685 -56.790 -23.215  0.00  0.00    +0.000 A 
ATOM     21  C   UNL     1     -73.169 -56.870 -21.920  0.00  0.00    +0.000 A 
ATOM     22  C   UNL     1     -74.406 -55.635 -23.504  0.00  0.00    +0.000 A 
ATOM     23  C   UNL     1     -73.374 -55.852 -20.996  0.00  0.00    +0.000 A 
ATOM     24  C   UNL     1     -74.109 -54.755 -21.406  0.00  0.00    +0.000 A 
ENDBRANCH   7  20
TORSDOF 1
ENDMDL
MODEL 6
REMARK VINA RESULT:      -5.9     36.380     39.365
REMARK  Name = JAK3_Inhibitor.pdbqt.pdb
REMARK  1 active torsions:
REMARK  status: ('A' for Active; 'I' for Inactive)
REMARK    1  A    between atoms: C_7  and  C_20
REMARK                            x       y       z     vdW  Elec       q    Type
REMARK                         _______ _______ _______ _____ _____    ______ ____
ROOT
ATOM      1  O   UNL     1     -67.622 -58.504 -38.030  0.00  0.00    +0.000 OA
ATOM      2  N   UNL     1     -67.269 -58.905 -35.749  0.00  0.00    +0.000 N 
ATOM      3  C   UNL     1     -68.789 -57.456 -34.827  0.00  0.00    +0.000 A 
ATOM      4  C   UNL     1     -67.809 -58.414 -34.560  0.00  0.00    +0.000 A 
ATOM      5  C   UNL     1     -68.856 -57.353 -36.275  0.00  0.00    +0.000 C 
ATOM      6  C   UNL     1     -69.466 -56.825 -33.801  0.00  0.00    +0.000 A 
ATOM      7  C   UNL     1     -69.155 -57.162 -32.473  0.00  0.00    +0.000 A 
ATOM      8  C   UNL     1     -67.860 -58.304 -36.855  0.00  0.00    +0.000 C 
ATOM      9  C   UNL     1     -67.468 -58.778 -33.276  0.00  0.00    +0.000 A 
ATOM     10  C   UNL     1     -69.625 -56.587 -36.982  0.00  0.00    +0.000 C 
ATOM     11  C   UNL     1     -68.156 -58.138 -32.242  0.00  0.00    +0.000 A 
ATOM     12  H   UNL     1     -66.546 -59.606 -35.824  0.00  0.00    +0.000 HD
ATOM     13  N   UNL     1     -70.401 -55.774 -39.171  0.00  0.00    +0.000 N 
ATOM     14  C   UNL     1     -70.445 -55.770 -37.801  0.00  0.00    +0.000 C 
ATOM     15  C   UNL     1     -71.398 -54.859 -37.410  0.00  0.00    +0.000 C 
ATOM     16  C   UNL     1     -71.314 -54.876 -39.657  0.00  0.00    +0.000 C 
ATOM     17  C   UNL     1     -71.947 -54.293 -38.584  0.00  0.00    +0.000 C 
ATOM     18  H   UNL     1     -69.790 -56.351 -39.733  0.00  0.00    +0.000 HD
ENDROOT
BRANCH   7  20
ATOM     19  N   UNL     1     -71.229 -56.719 -29.352  0.00  0.00    +0.000 NA
ATOM     20  C   UNL     1     -69.848 -56.519 -31.351  0.00  0.00    +0.000 A 
ATOM     21  C   UNL     1     -69.831 -55.135 -31.161  0.00  0.00    +0.000 A 
ATOM     22  C   UNL     1     -70.567 -57.245 -30.407  0.00  0.00    +0.000 A 
ATOM     23  C   UNL     1     -70.494 -54.544 -30.092  0.00  0.00    +0.000 A 
ATOM     24  C   UNL     1     -71.173 -55.377 -29.222  0.00  0.00    +0.000 A 
ENDBRANCH   7  20
TORSDOF 1
ENDMDL
MODEL 7
REMARK VINA RESULT:      -5.8     34.884     37.930
REMARK  Name = JAK3_Inhibitor.pdbqt.pdb
REMARK  1 active torsions:
REMARK  status: ('A' for Active; 'I' for Inactive)
REMARK    1  A    between atoms: C_7  and  C_20
REMARK                            x       y       z     vdW  Elec       q    Type
REMARK                         _______ _______ _______ _____ _____    ______ ____
ROOT
ATOM      1  O   UNL     1     -67.198 -60.143 -38.715  0.00  0.00    +0.000 OA
ATOM      2  N   UNL     1     -68.208 -60.452 -36.625  0.00  0.00    +0.000 N 
ATOM      3  C   UNL     1     -68.670 -58.279 -36.054  0.00  0.00    +0.000 A 
ATOM      4  C   UNL     1     -68.758 -59.614 -35.654  0.00  0.00    +0.000 A 
ATOM      5  C   UNL     1     -68.023 -58.299 -37.355  0.00  0.00    +0.000 C 
ATOM      6  C   UNL     1     -69.149 -57.263 -35.251  0.00  0.00    +0.000 A 
ATOM      7  C   UNL     1     -69.735 -57.590 -34.016  0.00  0.00    +0.000 A 
ATOM      8  C   UNL     1     -67.731 -59.722 -37.707  0.00  0.00    +0.000 C 
ATOM      9  C   UNL     1     -69.322 -59.985 -34.454  0.00  0.00    +0.000 A 
ATOM     10  C   UNL     1     -67.729 -57.290 -38.112  0.00  0.00    +0.000 C 
ATOM     11  C   UNL     1     -69.807 -58.954 -33.646  0.00  0.00    +0.000 A 
ATOM     12  H   UNL     1     -68.152 -61.459 -36.572  0.00  0.00    +0.000 HD
ATOM     13  N   UNL     1     -66.772 -56.384 -40.190  0.00  0.00    +0.000 N 
ATOM     14  C   UNL     1     -67.388 -56.219 -38.977  0.00  0.00    +0.000 C 
ATOM     15  C   UNL     1     -67.595 -54.873 -38.786  0.00  0.00    +0.000 C 
ATOM     16  C   UNL     1     -66.583 -55.160 -40.774  0.00  0.00    +0.000 C 
ATOM     17  C   UNL     1     -67.085 -54.202 -39.923  0.00  0.00    +0.000 C 
ATOM     18  H   UNL     1     -66.500 -57.272 -40.589  0.00  0.00    +0.000 HD
ENDROOT
BRANCH   7  20
ATOM     19  N   UNL     1     -71.897 -54.789 -32.707  0.00  0.00    +0.000 NA
ATOM     20  C   UNL     1     -70.259 -56.543 -33.131  0.00  0.00    +0.000 A 
ATOM     21  C   UNL     1     -69.682 -56.261 -31.891  0.00  0.00    +0.000 A 
ATOM     22  C   UNL     1     -71.362 -55.767 -33.472  0.00  0.00    +0.000 A 
ATOM     23  C   UNL     1     -70.193 -55.265 -31.067  0.00  0.00    +0.000 A 
ATOM     24  C   UNL     1     -71.296 -54.563 -31.520  0.00  0.00    +0.000 A 
ENDBRANCH   7  20
TORSDOF 1
ENDMDL
MODEL 8
REMARK VINA RESULT:      -5.8      5.086      8.170
REMARK  Name = JAK3_Inhibitor.pdbqt.pdb
REMARK  1 active torsions:
REMARK  status: ('A' for Active; 'I' for Inactive)
REMARK    1  A    between atoms: C_7  and  C_20
REMARK                            x       y       z     vdW  Elec       q    Type
REMARK                         _______ _______ _______ _____ _____    ______ ____
ROOT
ATOM      1  O   UNL     1     -60.816 -57.051 -81.393  0.00  0.00    +0.000 OA
ATOM      2  N   UNL     1     -61.079 -59.191 -80.479  0.00  0.00    +0.000 N 
ATOM      3  C   UNL     1     -62.982 -58.887 -79.235  0.00  0.00    +0.000 A 
ATOM      4  C   UNL     1     -61.997 -59.799 -79.622  0.00  0.00    +0.000 A 
ATOM      5  C   UNL     1     -62.646 -57.639 -79.898  0.00  0.00    +0.000 C 
ATOM      6  C   UNL     1     -64.003 -59.262 -78.384  0.00  0.00    +0.000 A 
ATOM      7  C   UNL     1     -64.041 -60.583 -77.907  0.00  0.00    +0.000 A 
ATOM      8  C   UNL     1     -61.405 -57.858 -80.701  0.00  0.00    +0.000 C 
ATOM      9  C   UNL     1     -61.991 -61.104 -79.182  0.00  0.00    +0.000 A 
ATOM     10  C   UNL     1     -63.278 -56.510 -79.833  0.00  0.00    +0.000 C 
ATOM     11  C   UNL     1     -63.026 -61.478 -78.322  0.00  0.00    +0.000 A 
ATOM     12  H   UNL     1     -60.275 -59.639 -80.896  0.00  0.00    +0.000 HD
ATOM     13  N   UNL     1     -63.501 -54.146 -80.477  0.00  0.00    +0.000 N 
ATOM     14  C   UNL     1     -63.933 -55.253 -79.796  0.00  0.00    +0.000 C 
ATOM     15  C   UNL     1     -65.074 -54.908 -79.109  0.00  0.00    +0.000 C 
ATOM     16  C   UNL     1     -64.350 -53.100 -80.232  0.00  0.00    +0.000 C 
ATOM     17  C   UNL     1     -65.337 -53.546 -79.384  0.00  0.00    +0.000 C 
ATOM     18  H   UNL     1     -62.681 -54.109 -81.069  0.00  0.00    +0.000 HD
ENDROOT
BRANCH   7  20
ATOM     19  N   UNL     1     -67.281 -62.083 -76.687  0.00  0.00    +0.000 NA
ATOM     20  C   UNL     1     -65.107 -61.026 -77.001  0.00  0.00    +0.000 A 
ATOM     21  C   UNL     1     -65.030 -60.846 -75.619  0.00  0.00    +0.000 A 
ATOM     22  C   UNL     1     -66.262 -61.651 -77.462  0.00  0.00    +0.000 A 
ATOM     23  C   UNL     1     -66.051 -61.273 -74.776  0.00  0.00    +0.000 A 
ATOM     24  C   UNL     1     -67.148 -61.882 -75.359  0.00  0.00    +0.000 A 
ENDBRANCH   7  20
TORSDOF 1
ENDMDL
MODEL 9
REMARK VINA RESULT:      -5.8     36.058     39.111
REMARK  Name = JAK3_Inhibitor.pdbqt.pdb
REMARK  1 active torsions:
REMARK  status: ('A' for Active; 'I' for Inactive)
REMARK    1  A    between atoms: C_7  and  C_20
REMARK                            x       y       z     vdW  Elec       q    Type
REMARK                         _______ _______ _______ _____ _____    ______ ____
ROOT
ATOM      1  O   UNL     1     -70.181 -56.476 -30.516  0.00  0.00    +0.000 OA
ATOM      2  N   UNL     1     -68.529 -57.528 -31.800  0.00  0.00    +0.000 N 
ATOM      3  C   UNL     1     -69.174 -56.903 -33.911  0.00  0.00    +0.000 A 
ATOM      4  C   UNL     1     -68.238 -57.620 -33.162  0.00  0.00    +0.000 A 
ATOM      5  C   UNL     1     -70.099 -56.334 -32.946  0.00  0.00    +0.000 C 
ATOM      6  C   UNL     1     -69.092 -56.849 -35.289  0.00  0.00    +0.000 A 
ATOM      7  C   UNL     1     -68.045 -57.529 -35.935  0.00  0.00    +0.000 A 
ATOM      8  C   UNL     1     -69.661 -56.753 -31.580  0.00  0.00    +0.000 C 
ATOM      9  C   UNL     1     -67.195 -58.301 -33.749  0.00  0.00    +0.000 A 
ATOM     10  C   UNL     1     -71.134 -55.592 -33.180  0.00  0.00    +0.000 C 
ATOM     11  C   UNL     1     -67.115 -58.244 -35.142  0.00  0.00    +0.000 A 
ATOM     12  H   UNL     1     -68.001 -57.957 -31.054  0.00  0.00    +0.000 HD
ATOM     13  N   UNL     1     -73.069 -54.306 -32.370  0.00  0.00    +0.000 N 
ATOM     14  C   UNL     1     -72.276 -54.776 -33.384  0.00  0.00    +0.000 C 
ATOM     15  C   UNL     1     -72.792 -54.316 -34.573  0.00  0.00    +0.000 C 
ATOM     16  C   UNL     1     -74.084 -53.553 -32.898  0.00  0.00    +0.000 C 
ATOM     17  C   UNL     1     -73.936 -53.542 -34.266  0.00  0.00    +0.000 C 
ATOM     18  H   UNL     1     -72.926 -54.488 -31.385  0.00  0.00    +0.000 HD
ENDROOT
BRANCH   7  20
ATOM     19  N   UNL     1     -67.786 -58.705 -39.511  0.00  0.00    +0.000 NA
ATOM     20  C   UNL     1     -67.918 -57.499 -37.396  0.00  0.00    +0.000 A 
ATOM     21  C   UNL     1     -67.806 -56.303 -38.108  0.00  0.00    +0.000 A 
ATOM     22  C   UNL     1     -67.901 -58.659 -38.164  0.00  0.00    +0.000 A 
ATOM     23  C   UNL     1     -67.686 -56.295 -39.494  0.00  0.00    +0.000 A 
ATOM     24  C   UNL     1     -67.683 -57.517 -40.142  0.00  0.00    +0.000 A 
ENDBRANCH   7  20
TORSDOF 1
ENDMDL
