MODEL 1
REMARK VINA RESULT:      -5.9      0.000      0.000
REMARK  Name = Leptomycin.pdbqt.pdb
REMARK  12 active torsions:
REMARK  status: ('A' for Active; 'I' for Inactive)
REMARK    1  A    between atoms: C_2  and  C_4
REMARK    2  A    between atoms: C_5  and  C_6
REMARK    3  A    between atoms: C_6  and  C_7
REMARK    4  A    between atoms: C_10  and  C_11
REMARK    5  A    between atoms: C_10  and  C_21
REMARK    6  A    between atoms: C_12  and  C_13
REMARK    7  A    between atoms: C_23  and  C_25
REMARK    8  A    between atoms: C_25  and  C_27
REMARK    9  A    between atoms: C_27  and  C_29
REMARK   10  A    between atoms: C_29  and  O_30
REMARK   11  A    between atoms: C_29  and  C_32
REMARK   12  A    between atoms: C_38  and  O_40
REMARK                            x       y       z     vdW  Elec       q    Type
REMARK                         _______ _______ _______ _____ _____    ______ ____
ROOT
ATOM      1  C   UNL     1     -64.223 -48.204 -52.326  0.00  0.00    +0.000 C 
ATOM      2  C   UNL     1     -64.389 -49.104 -53.241  0.00  0.00    +0.000 C 
ATOM      3  C   UNL     1     -63.875 -50.492 -52.988  0.00  0.00    +0.000 C 
ATOM      4  C   UNL     1     -64.114 -47.193 -51.339  0.00  0.00    +0.000 C 
ATOM      5  C   UNL     1     -62.763 -46.497 -51.274  0.00  0.00    +0.000 C 
ENDROOT
BRANCH   2   6
ATOM      6  C   UNL     1     -65.425 -48.929 -54.191  0.00  0.00    +0.000 C 
ATOM      7  C   UNL     1     -66.259 -48.777 -55.043  0.00  0.00    +0.000 C 
BRANCH   7   8
ATOM      8  C   UNL     1     -67.227 -48.575 -56.212  0.00  0.00    +0.000 C 
BRANCH   8   9
ATOM      9  C   UNL     1     -68.250 -48.315 -57.157  0.00  0.00    +0.000 C 
ATOM     10  C   UNL     1     -69.616 -48.890 -56.942  0.00  0.00    +0.000 C 
ATOM     11  C   UNL     1     -67.980 -47.615 -58.357  0.00  0.00    +0.000 C 
ATOM     12  C   UNL     1     -67.544 -46.974 -59.399  0.00  0.00    +0.000 C 
BRANCH  12  13
ATOM     13  C   UNL     1     -66.143 -46.744 -59.437  0.00  0.00    +0.000 C 
ATOM     14  C   UNL     1     -64.971 -46.498 -59.342  0.00  0.00    +0.000 C 
BRANCH  14  15
ATOM     15  C   UNL     1     -63.613 -46.168 -59.100  0.00  0.00    +0.000 A 
ATOM     16  O   UNL     1     -63.343 -45.342 -57.928  0.00  0.00    +0.000 OA
ATOM     17  C   UNL     1     -62.051 -44.976 -57.561  0.00  0.00    +0.000 A 
ATOM     18  O   UNL     1     -61.769 -44.317 -56.572  0.00  0.00    +0.000 OA
ATOM     19  C   UNL     1     -61.074 -45.488 -58.477  0.00  0.00    +0.000 A 
ATOM     20  C   UNL     1     -61.244 -46.160 -59.449  0.00  0.00    +0.000 A 
ATOM     21  C   UNL     1     -62.490 -46.616 -59.933  0.00  0.00    +0.000 A 
ATOM     22  C   UNL     1     -62.576 -47.495 -61.139  0.00  0.00    +0.000 C 
ENDBRANCH  14  15
ENDBRANCH  12  13
BRANCH  12  23
ATOM     23  C   UNL     1     -68.462 -46.581 -60.405  0.00  0.00    +0.000 C 
ATOM     24  C   UNL     1     -69.450 -46.150 -61.495  0.00  0.00    +0.000 C 
ENDBRANCH  12  23
ENDBRANCH   8   9
ENDBRANCH   7   8
ENDBRANCH   2   6
BRANCH   4  25
ATOM     25  C   UNL     1     -65.356 -46.515 -50.854  0.00  0.00    +0.000 C 
ATOM     26  O   UNL     1     -65.344 -45.701 -49.925  0.00  0.00    +0.000 OA
BRANCH  25  27
ATOM     27  C   UNL     1     -66.642 -46.907 -51.505  0.00  0.00    +0.000 C 
ATOM     28  C   UNL     1     -67.199 -46.059 -52.646  0.00  0.00    +0.000 C 
BRANCH  27  29
ATOM     29  C   UNL     1     -67.478 -47.909 -50.851  0.00  0.00    +0.000 C 
BRANCH  29  30
ATOM     30  C   UNL     1     -68.330 -48.915 -51.460  0.00  0.00    +0.000 C 
ATOM     31  C   UNL     1     -69.737 -48.564 -51.895  0.00  0.00    +0.000 C 
ATOM     32  C   UNL     1     -67.877 -50.197 -51.848  0.00  0.00    +0.000 C 
ATOM     33  C   UNL     1     -67.489 -51.494 -52.244  0.00  0.00    +0.000 C 
ATOM     34  C   UNL     1     -66.588 -52.283 -51.345  0.00  0.00    +0.000 C 
ATOM     35  C   UNL     1     -67.809 -51.942 -53.409  0.00  0.00    +0.000 C 
ATOM     36  C   UNL     1     -68.159 -52.410 -54.705  0.00  0.00    +0.000 C 
ATOM     37  O   UNL     1     -67.807 -51.850 -55.727  0.00  0.00    +0.000 OA
BRANCH  36  38
ATOM     38  O   UNL     1     -68.927 -53.510 -54.702  0.00  0.00    +0.000 OA
ATOM     39  H   UNL     1     -69.781 -53.212 -54.327  0.00  0.00    +0.000 HD
ENDBRANCH  36  38
ENDBRANCH  29  30
BRANCH  29  40
ATOM     40  O   UNL     1     -67.422 -47.926 -49.455  0.00  0.00    +0.000 OA
ATOM     41  H   UNL     1     -68.315 -47.917 -49.053  0.00  0.00    +0.000 HD
ENDBRANCH  29  40
ENDBRANCH  27  29
ENDBRANCH  25  27
ENDBRANCH   4  25
TORSDOF 12
ENDMDL
MODEL 2
REMARK VINA RESULT:      -5.8     23.240     28.951
REMARK  Name = Leptomycin.pdbqt.pdb
REMARK  12 active torsions:
REMARK  status: ('A' for Active; 'I' for Inactive)
REMARK    1  A    between atoms: C_2  and  C_4
REMARK    2  A    between atoms: C_5  and  C_6
REMARK    3  A    between atoms: C_6  and  C_7
REMARK    4  A    between atoms: C_10  and  C_11
REMARK    5  A    between atoms: C_10  and  C_21
REMARK    6  A    between atoms: C_12  and  C_13
REMARK    7  A    between atoms: C_23  and  C_25
REMARK    8  A    between atoms: C_25  and  C_27
REMARK    9  A    between atoms: C_27  and  C_29
REMARK   10  A    between atoms: C_29  and  O_30
REMARK   11  A    between atoms: C_29  and  C_32
REMARK   12  A    between atoms: C_38  and  O_40
REMARK                            x       y       z     vdW  Elec       q    Type
REMARK                         _______ _______ _______ _____ _____    ______ ____
ROOT
ATOM      1  C   UNL     1     -71.874 -59.703 -30.249  0.00  0.00    +0.000 C 
ATOM      2  C   UNL     1     -71.880 -60.798 -29.560  0.00  0.00    +0.000 C 
ATOM      3  C   UNL     1     -71.369 -62.055 -30.202  0.00  0.00    +0.000 C 
ATOM      4  C   UNL     1     -71.844 -58.465 -30.939  0.00  0.00    +0.000 C 
ATOM      5  C   UNL     1     -72.995 -58.236 -31.906  0.00  0.00    +0.000 C 
ENDROOT
BRANCH   2   6
ATOM      6  C   UNL     1     -71.888 -60.715 -28.146  0.00  0.00    +0.000 C 
ATOM      7  C   UNL     1     -71.908 -60.580 -26.952  0.00  0.00    +0.000 C 
BRANCH   7   8
ATOM      8  C   UNL     1     -71.953 -60.286 -25.450  0.00  0.00    +0.000 C 
BRANCH   8   9
ATOM      9  C   UNL     1     -72.153 -59.897 -24.103  0.00  0.00    +0.000 C 
ATOM     10  C   UNL     1     -71.921 -60.889 -23.005  0.00  0.00    +0.000 C 
ATOM     11  C   UNL     1     -72.674 -58.621 -23.777  0.00  0.00    +0.000 C 
ATOM     12  C   UNL     1     -73.170 -57.426 -23.673  0.00  0.00    +0.000 C 
BRANCH  12  13
ATOM     13  C   UNL     1     -73.497 -56.788 -24.900  0.00  0.00    +0.000 C 
ATOM     14  C   UNL     1     -73.744 -56.367 -25.998  0.00  0.00    +0.000 C 
BRANCH  14  15
ATOM     15  C   UNL     1     -74.011 -55.999 -27.341  0.00  0.00    +0.000 A 
ATOM     16  O   UNL     1     -73.768 -54.604 -27.694  0.00  0.00    +0.000 OA
ATOM     17  C   UNL     1     -73.959 -54.123 -28.986  0.00  0.00    +0.000 A 
ATOM     18  O   UNL     1     -73.736 -52.975 -29.341  0.00  0.00    +0.000 OA
ATOM     19  C   UNL     1     -74.430 -55.148 -29.870  0.00  0.00    +0.000 A 
ATOM     20  C   UNL     1     -74.649 -56.296 -29.630  0.00  0.00    +0.000 A 
ATOM     21  C   UNL     1     -74.489 -56.925 -28.375  0.00  0.00    +0.000 A 
ATOM     22  C   UNL     1     -74.750 -58.387 -28.204  0.00  0.00    +0.000 C 
ENDBRANCH  14  15
ENDBRANCH  12  13
BRANCH  12  23
ATOM     23  C   UNL     1     -73.366 -56.866 -22.386  0.00  0.00    +0.000 C 
ATOM     24  C   UNL     1     -73.582 -56.256 -20.997  0.00  0.00    +0.000 C 
ENDBRANCH  12  23
ENDBRANCH   8   9
ENDBRANCH   7   8
ENDBRANCH   2   6
BRANCH   4  25
ATOM     25  C   UNL     1     -71.104 -57.314 -30.334  0.00  0.00    +0.000 C 
ATOM     26  O   UNL     1     -71.053 -57.131 -29.113  0.00  0.00    +0.000 OA
BRANCH  25  27
ATOM     27  C   UNL     1     -70.467 -56.345 -31.276  0.00  0.00    +0.000 C 
ATOM     28  C   UNL     1     -70.951 -54.898 -31.310  0.00  0.00    +0.000 C 
BRANCH  27  29
ATOM     29  C   UNL     1     -69.612 -56.865 -32.339  0.00  0.00    +0.000 C 
BRANCH  29  30
ATOM     30  C   UNL     1     -69.916 -57.022 -33.750  0.00  0.00    +0.000 C 
ATOM     31  C   UNL     1     -71.224 -56.509 -34.313  0.00  0.00    +0.000 C 
ATOM     32  C   UNL     1     -68.982 -57.479 -34.708  0.00  0.00    +0.000 C 
ATOM     33  C   UNL     1     -68.101 -57.942 -35.708  0.00  0.00    +0.000 C 
ATOM     34  C   UNL     1     -67.210 -59.106 -35.401  0.00  0.00    +0.000 C 
ATOM     35  C   UNL     1     -67.983 -57.301 -36.819  0.00  0.00    +0.000 C 
ATOM     36  C   UNL     1     -67.856 -56.569 -38.032  0.00  0.00    +0.000 C 
ATOM     37  O   UNL     1     -67.497 -55.407 -38.068  0.00  0.00    +0.000 OA
BRANCH  36  38
ATOM     38  O   UNL     1     -68.187 -57.266 -39.129  0.00  0.00    +0.000 OA
ATOM     39  H   UNL     1     -68.783 -56.670 -39.628  0.00  0.00    +0.000 HD
ENDBRANCH  36  38
ENDBRANCH  29  30
BRANCH  29  40
ATOM     40  O   UNL     1     -68.318 -57.223 -31.954  0.00  0.00    +0.000 OA
ATOM     41  H   UNL     1     -68.244 -58.182 -31.768  0.00  0.00    +0.000 HD
ENDBRANCH  29  40
ENDBRANCH  27  29
ENDBRANCH  25  27
ENDBRANCH   4  25
TORSDOF 12
ENDMDL
MODEL 3
REMARK VINA RESULT:      -5.8      9.632     14.341
REMARK  Name = Leptomycin.pdbqt.pdb
REMARK  12 active torsions:
REMARK  status: ('A' for Active; 'I' for Inactive)
REMARK    1  A    between atoms: C_2  and  C_4
REMARK    2  A    between atoms: C_5  and  C_6
REMARK    3  A    between atoms: C_6  and  C_7
REMARK    4  A    between atoms: C_10  and  C_11
REMARK    5  A    between atoms: C_10  and  C_21
REMARK    6  A    between atoms: C_12  and  C_13
REMARK    7  A    between atoms: C_23  and  C_25
REMARK    8  A    between atoms: C_25  and  C_27
REMARK    9  A    between atoms: C_27  and  C_29
REMARK   10  A    between atoms: C_29  and  O_30
REMARK   11  A    between atoms: C_29  and  C_32
REMARK   12  A    between atoms: C_38  and  O_40
REMARK                            x       y       z     vdW  Elec       q    Type
REMARK                         _______ _______ _______ _____ _____    ______ ____
ROOT
ATOM      1  C   UNL     1     -60.450 -55.623 -58.792  0.00  0.00    +0.000 C 
ATOM      2  C   UNL     1     -60.819 -55.885 -57.580  0.00  0.00    +0.000 C 
ATOM      3  C   UNL     1     -62.182 -56.470 -57.352  0.00  0.00    +0.000 C 
ATOM      4  C   UNL     1     -59.976 -55.364 -60.103  0.00  0.00    +0.000 C 
ATOM      5  C   UNL     1     -60.452 -54.056 -60.715  0.00  0.00    +0.000 C 
ENDROOT
BRANCH   2   6
ATOM      6  C   UNL     1     -59.823 -56.084 -56.592  0.00  0.00    +0.000 C 
ATOM      7  C   UNL     1     -58.940 -56.277 -55.801  0.00  0.00    +0.000 C 
BRANCH   7   8
ATOM      8  C   UNL     1     -57.747 -56.572 -54.887  0.00  0.00    +0.000 C 
BRANCH   8   9
ATOM      9  C   UNL     1     -56.536 -56.737 -54.171  0.00  0.00    +0.000 C 
ATOM     10  C   UNL     1     -55.278 -57.065 -54.915  0.00  0.00    +0.000 C 
ATOM     11  C   UNL     1     -56.509 -56.707 -52.756  0.00  0.00    +0.000 C 
ATOM     12  C   UNL     1     -56.681 -56.663 -51.470  0.00  0.00    +0.000 C 
BRANCH  12  13
ATOM     13  C   UNL     1     -58.029 -56.554 -51.033  0.00  0.00    +0.000 C 
ATOM     14  C   UNL     1     -59.138 -56.560 -50.572  0.00  0.00    +0.000 C 
BRANCH  14  15
ATOM     15  C   UNL     1     -60.401 -56.658 -49.934  0.00  0.00    +0.000 A 
ATOM     16  O   UNL     1     -61.262 -55.483 -50.012  0.00  0.00    +0.000 OA
ATOM     17  C   UNL     1     -62.539 -55.461 -49.457  0.00  0.00    +0.000 A 
ATOM     18  O   UNL     1     -63.312 -54.518 -49.526  0.00  0.00    +0.000 OA
ATOM     19  C   UNL     1     -62.856 -56.699 -48.808  0.00  0.00    +0.000 A 
ATOM     20  C   UNL     1     -62.187 -57.683 -48.712  0.00  0.00    +0.000 A 
ATOM     21  C   UNL     1     -60.885 -57.853 -49.233  0.00  0.00    +0.000 A 
ATOM     22  C   UNL     1     -60.160 -59.153 -49.091  0.00  0.00    +0.000 C 
ENDBRANCH  14  15
ENDBRANCH  12  13
BRANCH  12  23
ATOM     23  C   UNL     1     -55.553 -56.745 -50.617  0.00  0.00    +0.000 C 
ATOM     24  C   UNL     1     -54.332 -56.826 -49.693  0.00  0.00    +0.000 C 
ENDBRANCH  12  23
ENDBRANCH   8   9
ENDBRANCH   7   8
ENDBRANCH   2   6
BRANCH   4  25
ATOM     25  C   UNL     1     -58.705 -56.011 -60.556  0.00  0.00    +0.000 C 
ATOM     26  O   UNL     1     -57.754 -55.360 -60.999  0.00  0.00    +0.000 OA
BRANCH  25  27
ATOM     27  C   UNL     1     -58.649 -57.504 -60.508  0.00  0.00    +0.000 C 
ATOM     28  C   UNL     1     -59.740 -58.321 -61.196  0.00  0.00    +0.000 C 
BRANCH  27  29
ATOM     29  C   UNL     1     -57.731 -58.137 -59.567  0.00  0.00    +0.000 C 
BRANCH  29  30
ATOM     30  C   UNL     1     -58.043 -58.987 -58.432  0.00  0.00    +0.000 C 
ATOM     31  C   UNL     1     -56.960 -59.378 -57.449  0.00  0.00    +0.000 C 
ATOM     32  C   UNL     1     -59.358 -59.353 -58.062  0.00  0.00    +0.000 C 
ATOM     33  C   UNL     1     -60.643 -59.764 -57.651  0.00  0.00    +0.000 C 
ATOM     34  C   UNL     1     -61.634 -60.181 -58.694  0.00  0.00    +0.000 C 
ATOM     35  C   UNL     1     -60.993 -59.670 -56.415  0.00  0.00    +0.000 C 
ATOM     36  C   UNL     1     -61.363 -59.541 -55.048  0.00  0.00    +0.000 C 
ATOM     37  O   UNL     1     -61.373 -58.474 -54.464  0.00  0.00    +0.000 OA
BRANCH  36  38
ATOM     38  O   UNL     1     -61.680 -60.702 -54.455  0.00  0.00    +0.000 OA
ATOM     39  H   UNL     1     -62.656 -60.755 -54.524  0.00  0.00    +0.000 HD
ENDBRANCH  36  38
ENDBRANCH  29  30
BRANCH  29  40
ATOM     40  O   UNL     1     -56.372 -57.929 -59.813  0.00  0.00    +0.000 OA
ATOM     41  H   UNL     1     -55.815 -58.220 -59.062  0.00  0.00    +0.000 HD
ENDBRANCH  29  40
ENDBRANCH  27  29
ENDBRANCH  25  27
ENDBRANCH   4  25
TORSDOF 12
ENDMDL
MODEL 4
REMARK VINA RESULT:      -5.8      2.035      2.619
REMARK  Name = Leptomycin.pdbqt.pdb
REMARK  12 active torsions:
REMARK  status: ('A' for Active; 'I' for Inactive)
REMARK    1  A    between atoms: C_2  and  C_4
REMARK    2  A    between atoms: C_5  and  C_6
REMARK    3  A    between atoms: C_6  and  C_7
REMARK    4  A    between atoms: C_10  and  C_11
REMARK    5  A    between atoms: C_10  and  C_21
REMARK    6  A    between atoms: C_12  and  C_13
REMARK    7  A    between atoms: C_23  and  C_25
REMARK    8  A    between atoms: C_25  and  C_27
REMARK    9  A    between atoms: C_27  and  C_29
REMARK   10  A    between atoms: C_29  and  O_30
REMARK   11  A    between atoms: C_29  and  C_32
REMARK   12  A    between atoms: C_38  and  O_40
REMARK                            x       y       z     vdW  Elec       q    Type
REMARK                         _______ _______ _______ _____ _____    ______ ____
ROOT
ATOM      1  C   UNL     1     -64.760 -48.641 -52.617  0.00  0.00    +0.000 C 
ATOM      2  C   UNL     1     -64.784 -49.279 -53.742  0.00  0.00    +0.000 C 
ATOM      3  C   UNL     1     -64.134 -50.630 -53.818  0.00  0.00    +0.000 C 
ATOM      4  C   UNL     1     -64.806 -47.919 -51.398  0.00  0.00    +0.000 C 
ATOM      5  C   UNL     1     -63.544 -47.142 -51.058  0.00  0.00    +0.000 C 
ENDROOT
BRANCH   2   6
ATOM      6  C   UNL     1     -65.790 -48.958 -54.687  0.00  0.00    +0.000 C 
ATOM      7  C   UNL     1     -66.604 -48.711 -55.535  0.00  0.00    +0.000 C 
BRANCH   7   8
ATOM      8  C   UNL     1     -67.562 -48.443 -56.700  0.00  0.00    +0.000 C 
BRANCH   8   9
ATOM      9  C   UNL     1     -68.579 -48.137 -57.636  0.00  0.00    +0.000 C 
ATOM     10  C   UNL     1     -69.962 -48.669 -57.425  0.00  0.00    +0.000 C 
ATOM     11  C   UNL     1     -68.290 -47.428 -58.828  0.00  0.00    +0.000 C 
ATOM     12  C   UNL     1     -67.837 -46.787 -59.862  0.00  0.00    +0.000 C 
BRANCH  12  13
ATOM     13  C   UNL     1     -66.429 -46.602 -59.902  0.00  0.00    +0.000 C 
ATOM     14  C   UNL     1     -65.241 -46.465 -59.800  0.00  0.00    +0.000 C 
BRANCH  14  15
ATOM     15  C   UNL     1     -63.851 -46.335 -59.545  0.00  0.00    +0.000 A 
ATOM     16  O   UNL     1     -63.003 -46.042 -60.696  0.00  0.00    +0.000 OA
ATOM     17  C   UNL     1     -61.629 -45.857 -60.576  0.00  0.00    +0.000 A 
ATOM     18  O   UNL     1     -60.881 -45.575 -61.500  0.00  0.00    +0.000 OA
ATOM     19  C   UNL     1     -61.189 -46.014 -59.221  0.00  0.00    +0.000 A 
ATOM     20  C   UNL     1     -61.839 -46.259 -58.250  0.00  0.00    +0.000 A 
ATOM     21  C   UNL     1     -63.237 -46.458 -58.218  0.00  0.00    +0.000 A 
ATOM     22  C   UNL     1     -63.952 -46.712 -56.929  0.00  0.00    +0.000 C 
ENDBRANCH  14  15
ENDBRANCH  12  13
BRANCH  12  23
ATOM     23  C   UNL     1     -68.745 -46.350 -60.859  0.00  0.00    +0.000 C 
ATOM     24  C   UNL     1     -69.733 -45.881 -61.933  0.00  0.00    +0.000 C 
ENDBRANCH  12  23
ENDBRANCH   8   9
ENDBRANCH   7   8
ENDBRANCH   2   6
BRANCH   4  25
ATOM     25  C   UNL     1     -66.135 -47.512 -50.845  0.00  0.00    +0.000 C 
ATOM     26  O   UNL     1     -66.248 -46.673 -49.946  0.00  0.00    +0.000 OA
BRANCH  25  27
ATOM     27  C   UNL     1     -67.339 -48.211 -51.389  0.00  0.00    +0.000 C 
ATOM     28  C   UNL     1     -68.200 -47.520 -52.444  0.00  0.00    +0.000 C 
BRANCH  27  29
ATOM     29  C   UNL     1     -67.829 -49.399 -50.696  0.00  0.00    +0.000 C 
BRANCH  29  30
ATOM     30  C   UNL     1     -67.811 -50.780 -51.143  0.00  0.00    +0.000 C 
ATOM     31  C   UNL     1     -67.838 -51.106 -52.621  0.00  0.00    +0.000 C 
ATOM     32  C   UNL     1     -67.591 -51.881 -50.283  0.00  0.00    +0.000 C 
ATOM     33  C   UNL     1     -67.392 -53.020 -49.475  0.00  0.00    +0.000 C 
ATOM     34  C   UNL     1     -68.066 -53.084 -48.139  0.00  0.00    +0.000 C 
ATOM     35  C   UNL     1     -66.553 -53.931 -49.831  0.00  0.00    +0.000 C 
ATOM     36  C   UNL     1     -65.610 -54.916 -50.234  0.00  0.00    +0.000 C 
ATOM     37  O   UNL     1     -64.431 -54.670 -50.409  0.00  0.00    +0.000 OA
BRANCH  36  38
ATOM     38  O   UNL     1     -66.139 -56.135 -50.425  0.00  0.00    +0.000 OA
ATOM     39  H   UNL     1     -66.196 -56.521 -49.526  0.00  0.00    +0.000 HD
ENDBRANCH  36  38
ENDBRANCH  29  30
BRANCH  29  40
ATOM     40  O   UNL     1     -68.348 -49.182 -49.417  0.00  0.00    +0.000 OA
ATOM     41  H   UNL     1     -68.613 -50.019 -48.983  0.00  0.00    +0.000 HD
ENDBRANCH  29  40
ENDBRANCH  27  29
ENDBRANCH  25  27
ENDBRANCH   4  25
TORSDOF 12
ENDMDL
MODEL 5
REMARK VINA RESULT:      -5.7     16.844     20.864
REMARK  Name = Leptomycin.pdbqt.pdb
REMARK  12 active torsions:
REMARK  status: ('A' for Active; 'I' for Inactive)
REMARK    1  A    between atoms: C_2  and  C_4
REMARK    2  A    between atoms: C_5  and  C_6
REMARK    3  A    between atoms: C_6  and  C_7
REMARK    4  A    between atoms: C_10  and  C_11
REMARK    5  A    between atoms: C_10  and  C_21
REMARK    6  A    between atoms: C_12  and  C_13
REMARK    7  A    between atoms: C_23  and  C_25
REMARK    8  A    between atoms: C_25  and  C_27
REMARK    9  A    between atoms: C_27  and  C_29
REMARK   10  A    between atoms: C_29  and  O_30
REMARK   11  A    between atoms: C_29  and  C_32
REMARK   12  A    between atoms: C_38  and  O_40
REMARK                            x       y       z     vdW  Elec       q    Type
REMARK                         _______ _______ _______ _____ _____    ______ ____
ROOT
ATOM      1  C   UNL     1     -52.878 -57.074 -70.151  0.00  0.00    +0.000 C 
ATOM      2  C   UNL     1     -53.989 -56.960 -69.499  0.00  0.00    +0.000 C 
ATOM      3  C   UNL     1     -55.230 -57.576 -70.077  0.00  0.00    +0.000 C 
ATOM      4  C   UNL     1     -51.624 -57.212 -70.798  0.00  0.00    +0.000 C 
ATOM      5  C   UNL     1     -51.373 -56.234 -71.936  0.00  0.00    +0.000 C 
ENDROOT
BRANCH   2   6
ATOM      6  C   UNL     1     -53.939 -56.720 -68.104  0.00  0.00    +0.000 C 
ATOM      7  C   UNL     1     -53.962 -56.524 -66.919  0.00  0.00    +0.000 C 
BRANCH   7   8
ATOM      8  C   UNL     1     -54.116 -56.288 -65.413  0.00  0.00    +0.000 C 
BRANCH   8   9
ATOM      9  C   UNL     1     -54.059 -56.043 -64.019  0.00  0.00    +0.000 C 
ATOM     10  C   UNL     1     -54.942 -56.824 -63.095  0.00  0.00    +0.000 C 
ATOM     11  C   UNL     1     -53.264 -54.998 -63.490  0.00  0.00    +0.000 C 
ATOM     12  C   UNL     1     -52.496 -53.994 -63.193  0.00  0.00    +0.000 C 
BRANCH  12  13
ATOM     13  C   UNL     1     -51.947 -53.292 -64.299  0.00  0.00    +0.000 C 
ATOM     14  C   UNL     1     -51.421 -52.617 -65.142  0.00  0.00    +0.000 C 
BRANCH  14  15
ATOM     15  C   UNL     1     -50.736 -51.752 -66.034  0.00  0.00    +0.000 A 
ATOM     16  O   UNL     1     -49.990 -52.390 -67.114  0.00  0.00    +0.000 OA
ATOM     17  C   UNL     1     -49.304 -51.654 -68.076  0.00  0.00    +0.000 A 
ATOM     18  O   UNL     1     -48.695 -52.137 -69.019  0.00  0.00    +0.000 OA
ATOM     19  C   UNL     1     -49.414 -50.244 -67.844  0.00  0.00    +0.000 A 
ATOM     20  C   UNL     1     -50.004 -49.676 -66.976  0.00  0.00    +0.000 A 
ATOM     21  C   UNL     1     -50.751 -50.288 -65.944  0.00  0.00    +0.000 A 
ATOM     22  C   UNL     1     -51.491 -49.468 -64.935  0.00  0.00    +0.000 C 
ENDBRANCH  14  15
ENDBRANCH  12  13
BRANCH  12  23
ATOM     23  C   UNL     1     -52.282 -53.665 -61.831  0.00  0.00    +0.000 C 
ATOM     24  C   UNL     1     -52.051 -53.316 -60.356  0.00  0.00    +0.000 C 
ENDBRANCH  12  23
ENDBRANCH   8   9
ENDBRANCH   7   8
ENDBRANCH   2   6
BRANCH   4  25
ATOM     25  C   UNL     1     -50.487 -57.837 -70.053  0.00  0.00    +0.000 C 
ATOM     26  O   UNL     1     -49.695 -58.618 -70.591  0.00  0.00    +0.000 OA
BRANCH  25  27
ATOM     27  C   UNL     1     -50.377 -57.525 -68.596  0.00  0.00    +0.000 C 
ATOM     28  C   UNL     1     -50.090 -56.093 -68.151  0.00  0.00    +0.000 C 
BRANCH  27  29
ATOM     29  C   UNL     1     -50.253 -58.632 -67.653  0.00  0.00    +0.000 C 
BRANCH  29  30
ATOM     30  C   UNL     1     -51.307 -59.410 -67.027  0.00  0.00    +0.000 C 
ATOM     31  C   UNL     1     -51.366 -59.546 -65.520  0.00  0.00    +0.000 C 
ATOM     32  C   UNL     1     -52.422 -59.928 -67.726  0.00  0.00    +0.000 C 
ATOM     33  C   UNL     1     -53.548 -60.483 -68.370  0.00  0.00    +0.000 C 
ATOM     34  C   UNL     1     -53.366 -61.134 -69.706  0.00  0.00    +0.000 C 
ATOM     35  C   UNL     1     -54.725 -60.327 -67.870  0.00  0.00    +0.000 C 
ATOM     36  C   UNL     1     -56.017 -60.129 -67.311  0.00  0.00    +0.000 C 
ATOM     37  O   UNL     1     -56.498 -59.025 -67.132  0.00  0.00    +0.000 OA
BRANCH  36  38
ATOM     38  O   UNL     1     -56.650 -61.264 -66.978  0.00  0.00    +0.000 OA
ATOM     39  H   UNL     1     -57.536 -60.973 -66.678  0.00  0.00    +0.000 HD
ENDBRANCH  36  38
ENDBRANCH  29  30
BRANCH  29  40
ATOM     40  O   UNL     1     -48.948 -59.018 -67.340  0.00  0.00    +0.000 OA
ATOM     41  H   UNL     1     -48.907 -59.530 -66.506  0.00  0.00    +0.000 HD
ENDBRANCH  29  40
ENDBRANCH  27  29
ENDBRANCH  25  27
ENDBRANCH   4  25
TORSDOF 12
ENDMDL
MODEL 6
REMARK VINA RESULT:      -5.5     18.070     22.005
REMARK  Name = Leptomycin.pdbqt.pdb
REMARK  12 active torsions:
REMARK  status: ('A' for Active; 'I' for Inactive)
REMARK    1  A    between atoms: C_2  and  C_4
REMARK    2  A    between atoms: C_5  and  C_6
REMARK    3  A    between atoms: C_6  and  C_7
REMARK    4  A    between atoms: C_10  and  C_11
REMARK    5  A    between atoms: C_10  and  C_21
REMARK    6  A    between atoms: C_12  and  C_13
REMARK    7  A    between atoms: C_23  and  C_25
REMARK    8  A    between atoms: C_25  and  C_27
REMARK    9  A    between atoms: C_27  and  C_29
REMARK   10  A    between atoms: C_29  and  O_30
REMARK   11  A    between atoms: C_29  and  C_32
REMARK   12  A    between atoms: C_38  and  O_40
REMARK                            x       y       z     vdW  Elec       q    Type
REMARK                         _______ _______ _______ _____ _____    ______ ____
ROOT
ATOM      1  C   UNL     1     -64.283 -63.588 -72.001  0.00  0.00    +0.000 C 
ATOM      2  C   UNL     1     -64.399 -62.307 -71.864  0.00  0.00    +0.000 C 
ATOM      3  C   UNL     1     -64.462 -61.453 -73.097  0.00  0.00    +0.000 C 
ATOM      4  C   UNL     1     -64.206 -65.001 -72.093  0.00  0.00    +0.000 C 
ATOM      5  C   UNL     1     -62.813 -65.558 -72.343  0.00  0.00    +0.000 C 
ENDROOT
BRANCH   2   6
ATOM      6  C   UNL     1     -64.940 -61.796 -70.659  0.00  0.00    +0.000 C 
ATOM      7  C   UNL     1     -65.434 -61.418 -69.631  0.00  0.00    +0.000 C 
BRANCH   7   8
ATOM      8  C   UNL     1     -66.132 -61.041 -68.321  0.00  0.00    +0.000 C 
BRANCH   8   9
ATOM      9  C   UNL     1     -66.602 -60.737 -67.020  0.00  0.00    +0.000 C 
ATOM     10  C   UNL     1     -65.740 -61.038 -65.834  0.00  0.00    +0.000 C 
ATOM     11  C   UNL     1     -67.917 -60.255 -66.809  0.00  0.00    +0.000 C 
ATOM     12  C   UNL     1     -69.147 -59.839 -66.809  0.00  0.00    +0.000 C 
BRANCH  12  13
ATOM     13  C   UNL     1     -69.801 -59.857 -68.071  0.00  0.00    +0.000 C 
ATOM     14  C   UNL     1     -70.403 -59.996 -69.101  0.00  0.00    +0.000 C 
BRANCH  14  15
ATOM     15  C   UNL     1     -71.161 -60.279 -70.266  0.00  0.00    +0.000 A 
ATOM     16  O   UNL     1     -70.983 -59.371 -71.394  0.00  0.00    +0.000 OA
ATOM     17  C   UNL     1     -71.643 -59.557 -72.606  0.00  0.00    +0.000 A 
ATOM     18  O   UNL     1     -71.501 -58.849 -73.591  0.00  0.00    +0.000 OA
ATOM     19  C   UNL     1     -72.502 -60.704 -72.572  0.00  0.00    +0.000 A 
ATOM     20  C   UNL     1     -72.687 -61.470 -71.675  0.00  0.00    +0.000 A 
ATOM     21  C   UNL     1     -72.080 -61.415 -70.401  0.00  0.00    +0.000 A 
ATOM     22  C   UNL     1     -72.354 -62.462 -69.369  0.00  0.00    +0.000 C 
ENDBRANCH  14  15
ENDBRANCH  12  13
BRANCH  12  23
ATOM     23  C   UNL     1     -69.741 -59.430 -65.590  0.00  0.00    +0.000 C 
ATOM     24  C   UNL     1     -70.389 -58.992 -64.271  0.00  0.00    +0.000 C 
ENDBRANCH  12  23
ENDBRANCH   8   9
ENDBRANCH   7   8
ENDBRANCH   2   6
BRANCH   4  25
ATOM     25  C   UNL     1     -65.261 -65.829 -71.431  0.00  0.00    +0.000 C 
ATOM     26  O   UNL     1     -65.448 -67.016 -71.721  0.00  0.00    +0.000 OA
BRANCH  25  27
ATOM     27  C   UNL     1     -66.136 -65.143 -70.433  0.00  0.00    +0.000 C 
ATOM     28  C   UNL     1     -65.696 -65.065 -68.973  0.00  0.00    +0.000 C 
BRANCH  27  29
ATOM     29  C   UNL     1     -67.510 -64.827 -70.810  0.00  0.00    +0.000 C 
BRANCH  29  30
ATOM     30  C   UNL     1     -68.178 -63.538 -70.799  0.00  0.00    +0.000 C 
ATOM     31  C   UNL     1     -68.760 -62.989 -69.514  0.00  0.00    +0.000 C 
ATOM     32  C   UNL     1     -68.180 -62.645 -71.895  0.00  0.00    +0.000 C 
ATOM     33  C   UNL     1     -68.229 -61.719 -72.958  0.00  0.00    +0.000 C 
ATOM     34  C   UNL     1     -68.454 -62.228 -74.349  0.00  0.00    +0.000 C 
ATOM     35  C   UNL     1     -67.968 -60.475 -72.749  0.00  0.00    +0.000 C 
ATOM     36  C   UNL     1     -67.661 -59.109 -72.500  0.00  0.00    +0.000 C 
ATOM     37  O   UNL     1     -66.588 -58.743 -72.056  0.00  0.00    +0.000 OA
BRANCH  36  38
ATOM     38  O   UNL     1     -68.664 -58.262 -72.776  0.00  0.00    +0.000 OA
ATOM     39  H   UNL     1     -68.997 -58.554 -73.650  0.00  0.00    +0.000 HD
ENDBRANCH  36  38
ENDBRANCH  29  30
BRANCH  29  40
ATOM     40  O   UNL     1     -68.271 -65.901 -71.278  0.00  0.00    +0.000 OA
ATOM     41  H   UNL     1     -69.028 -65.602 -71.825  0.00  0.00    +0.000 HD
ENDBRANCH  29  40
ENDBRANCH  27  29
ENDBRANCH  25  27
ENDBRANCH   4  25
TORSDOF 12
ENDMDL
MODEL 7
REMARK VINA RESULT:      -5.5      3.381      8.603
REMARK  Name = Leptomycin.pdbqt.pdb
REMARK  12 active torsions:
REMARK  status: ('A' for Active; 'I' for Inactive)
REMARK    1  A    between atoms: C_2  and  C_4
REMARK    2  A    between atoms: C_5  and  C_6
REMARK    3  A    between atoms: C_6  and  C_7
REMARK    4  A    between atoms: C_10  and  C_11
REMARK    5  A    between atoms: C_10  and  C_21
REMARK    6  A    between atoms: C_12  and  C_13
REMARK    7  A    between atoms: C_23  and  C_25
REMARK    8  A    between atoms: C_25  and  C_27
REMARK    9  A    between atoms: C_27  and  C_29
REMARK   10  A    between atoms: C_29  and  O_30
REMARK   11  A    between atoms: C_29  and  C_32
REMARK   12  A    between atoms: C_38  and  O_40
REMARK                            x       y       z     vdW  Elec       q    Type
REMARK                         _______ _______ _______ _____ _____    ______ ____
ROOT
ATOM      1  C   UNL     1     -62.542 -43.653 -57.765  0.00  0.00    +0.000 C 
ATOM      2  C   UNL     1     -63.342 -43.045 -56.951  0.00  0.00    +0.000 C 
ATOM      3  C   UNL     1     -64.254 -41.984 -57.495  0.00  0.00    +0.000 C 
ATOM      4  C   UNL     1     -61.680 -44.385 -58.620  0.00  0.00    +0.000 C 
ATOM      5  C   UNL     1     -60.376 -43.689 -58.974  0.00  0.00    +0.000 C 
ENDROOT
BRANCH   2   6
ATOM      6  C   UNL     1     -63.698 -43.686 -55.738  0.00  0.00    +0.000 C 
ATOM      7  C   UNL     1     -63.969 -44.181 -54.678  0.00  0.00    +0.000 C 
BRANCH   7   8
ATOM      8  C   UNL     1     -64.252 -44.717 -53.271  0.00  0.00    +0.000 C 
BRANCH   8   9
ATOM      9  C   UNL     1     -64.443 -45.036 -51.904  0.00  0.00    +0.000 C 
ATOM     10  C   UNL     1     -65.819 -44.980 -51.318  0.00  0.00    +0.000 C 
ATOM     11  C   UNL     1     -63.343 -45.300 -51.052  0.00  0.00    +0.000 C 
ATOM     12  C   UNL     1     -62.223 -45.498 -50.426  0.00  0.00    +0.000 C 
BRANCH  12  13
ATOM     13  C   UNL     1     -61.045 -45.271 -51.188  0.00  0.00    +0.000 C 
ATOM     14  C   UNL     1     -59.995 -45.027 -51.717  0.00  0.00    +0.000 C 
BRANCH  14  15
ATOM     15  C   UNL     1     -58.708 -44.700 -52.217  0.00  0.00    +0.000 A 
ATOM     16  O   UNL     1     -58.488 -44.925 -53.642  0.00  0.00    +0.000 OA
ATOM     17  C   UNL     1     -57.282 -44.613 -54.263  0.00  0.00    +0.000 A 
ATOM     18  O   UNL     1     -57.058 -44.748 -55.457  0.00  0.00    +0.000 OA
ATOM     19  C   UNL     1     -56.327 -44.086 -53.334  0.00  0.00    +0.000 A 
ATOM     20  C   UNL     1     -56.456 -43.890 -52.163  0.00  0.00    +0.000 A 
ATOM     21  C   UNL     1     -57.620 -44.144 -51.405  0.00  0.00    +0.000 A 
ATOM     22  C   UNL     1     -57.681 -43.812 -49.948  0.00  0.00    +0.000 C 
ENDBRANCH  14  15
ENDBRANCH  12  13
BRANCH  12  23
ATOM     23  C   UNL     1     -62.250 -45.892 -49.066  0.00  0.00    +0.000 C 
ATOM     24  C   UNL     1     -62.277 -46.312 -47.591  0.00  0.00    +0.000 C 
ENDBRANCH  12  23
ENDBRANCH   8   9
ENDBRANCH   7   8
ENDBRANCH   2   6
BRANCH   4  25
ATOM     25  C   UNL     1     -61.794 -45.877 -58.661  0.00  0.00    +0.000 C 
ATOM     26  O   UNL     1     -61.333 -46.599 -57.770  0.00  0.00    +0.000 OA
BRANCH  25  27
ATOM     27  C   UNL     1     -62.444 -46.475 -59.866  0.00  0.00    +0.000 C 
ATOM     28  C   UNL     1     -61.649 -46.608 -61.163  0.00  0.00    +0.000 C 
BRANCH  27  29
ATOM     29  C   UNL     1     -63.893 -46.644 -59.865  0.00  0.00    +0.000 C 
BRANCH  29  30
ATOM     30  C   UNL     1     -64.866 -46.115 -58.926  0.00  0.00    +0.000 C 
ATOM     31  C   UNL     1     -65.816 -45.015 -59.348  0.00  0.00    +0.000 C 
ATOM     32  C   UNL     1     -65.121 -46.683 -57.656  0.00  0.00    +0.000 C 
ATOM     33  C   UNL     1     -65.410 -47.193 -56.374  0.00  0.00    +0.000 C 
ATOM     34  C   UNL     1     -64.276 -47.639 -55.503  0.00  0.00    +0.000 C 
ATOM     35  C   UNL     1     -66.631 -47.381 -56.008  0.00  0.00    +0.000 C 
ATOM     36  C   UNL     1     -67.985 -47.595 -55.631  0.00  0.00    +0.000 C 
ATOM     37  O   UNL     1     -68.731 -48.340 -56.241  0.00  0.00    +0.000 OA
BRANCH  36  38
ATOM     38  O   UNL     1     -68.374 -46.890 -54.558  0.00  0.00    +0.000 OA
ATOM     39  H   UNL     1     -68.078 -47.424 -53.793  0.00  0.00    +0.000 HD
ENDBRANCH  36  38
ENDBRANCH  29  30
BRANCH  29  40
ATOM     40  O   UNL     1     -64.417 -47.381 -60.930  0.00  0.00    +0.000 OA
ATOM     41  H   UNL     1     -63.765 -48.017 -61.291  0.00  0.00    +0.000 HD
ENDBRANCH  29  40
ENDBRANCH  27  29
ENDBRANCH  25  27
ENDBRANCH   4  25
TORSDOF 12
ENDMDL
MODEL 8
REMARK VINA RESULT:      -5.4     29.243     34.855
REMARK  Name = Leptomycin.pdbqt.pdb
REMARK  12 active torsions:
REMARK  status: ('A' for Active; 'I' for Inactive)
REMARK    1  A    between atoms: C_2  and  C_4
REMARK    2  A    between atoms: C_5  and  C_6
REMARK    3  A    between atoms: C_6  and  C_7
REMARK    4  A    between atoms: C_10  and  C_11
REMARK    5  A    between atoms: C_10  and  C_21
REMARK    6  A    between atoms: C_12  and  C_13
REMARK    7  A    between atoms: C_23  and  C_25
REMARK    8  A    between atoms: C_25  and  C_27
REMARK    9  A    between atoms: C_27  and  C_29
REMARK   10  A    between atoms: C_29  and  O_30
REMARK   11  A    between atoms: C_29  and  C_32
REMARK   12  A    between atoms: C_38  and  O_40
REMARK                            x       y       z     vdW  Elec       q    Type
REMARK                         _______ _______ _______ _____ _____    ______ ____
ROOT
ATOM      1  C   UNL     1     -46.987 -66.439 -80.984  0.00  0.00    +0.000 C 
ATOM      2  C   UNL     1     -47.363 -65.592 -80.082  0.00  0.00    +0.000 C 
ATOM      3  C   UNL     1     -46.913 -65.801 -78.665  0.00  0.00    +0.000 C 
ATOM      4  C   UNL     1     -46.563 -67.308 -82.022  0.00  0.00    +0.000 C 
ATOM      5  C   UNL     1     -47.352 -68.603 -82.142  0.00  0.00    +0.000 C 
ENDROOT
BRANCH   2   6
ATOM      6  C   UNL     1     -47.742 -64.288 -80.487  0.00  0.00    +0.000 C 
ATOM      7  C   UNL     1     -48.113 -63.186 -80.787  0.00  0.00    +0.000 C 
BRANCH   7   8
ATOM      8  C   UNL     1     -48.679 -61.794 -81.086  0.00  0.00    +0.000 C 
BRANCH   8   9
ATOM      9  C   UNL     1     -49.011 -60.448 -81.375  0.00  0.00    +0.000 C 
ATOM     10  C   UNL     1     -48.382 -59.769 -82.552  0.00  0.00    +0.000 C 
ATOM     11  C   UNL     1     -49.841 -59.695 -80.509  0.00  0.00    +0.000 C 
ATOM     12  C   UNL     1     -50.599 -59.163 -79.599  0.00  0.00    +0.000 C 
BRANCH  12  13
ATOM     13  C   UNL     1     -50.868 -59.982 -78.469  0.00  0.00    +0.000 C 
ATOM     14  C   UNL     1     -50.978 -60.625 -77.461  0.00  0.00    +0.000 C 
BRANCH  14  15
ATOM     15  C   UNL     1     -50.993 -61.323 -76.226  0.00  0.00    +0.000 A 
ATOM     16  O   UNL     1     -51.679 -62.611 -76.215  0.00  0.00    +0.000 OA
ATOM     17  C   UNL     1     -51.737 -63.409 -75.076  0.00  0.00    +0.000 A 
ATOM     18  O   UNL     1     -52.266 -64.509 -75.023  0.00  0.00    +0.000 OA
ATOM     19  C   UNL     1     -51.074 -62.795 -73.963  0.00  0.00    +0.000 A 
ATOM     20  C   UNL     1     -50.507 -61.746 -73.920  0.00  0.00    +0.000 A 
ATOM     21  C   UNL     1     -50.357 -60.841 -74.995  0.00  0.00    +0.000 A 
ATOM     22  C   UNL     1     -49.581 -59.572 -74.834  0.00  0.00    +0.000 C 
ENDBRANCH  14  15
ENDBRANCH  12  13
BRANCH  12  23
ATOM     23  C   UNL     1     -51.073 -57.840 -79.778  0.00  0.00    +0.000 C 
ATOM     24  C   UNL     1     -51.579 -56.406 -79.976  0.00  0.00    +0.000 C 
ENDBRANCH  12  23
ENDBRANCH   8   9
ENDBRANCH   7   8
ENDBRANCH   2   6
BRANCH   4  25
ATOM     25  C   UNL     1     -45.835 -66.736 -83.196  0.00  0.00    +0.000 C 
ATOM     26  O   UNL     1     -44.952 -67.359 -83.794  0.00  0.00    +0.000 OA
BRANCH  25  27
ATOM     27  C   UNL     1     -46.179 -65.336 -83.591  0.00  0.00    +0.000 C 
ATOM     28  C   UNL     1     -47.523 -65.048 -84.255  0.00  0.00    +0.000 C 
BRANCH  27  29
ATOM     29  C   UNL     1     -45.117 -64.335 -83.605  0.00  0.00    +0.000 C 
BRANCH  29  30
ATOM     30  C   UNL     1     -44.900 -63.233 -82.684  0.00  0.00    +0.000 C 
ATOM     31  C   UNL     1     -45.306 -61.826 -83.066  0.00  0.00    +0.000 C 
ATOM     32  C   UNL     1     -44.480 -63.400 -81.344  0.00  0.00    +0.000 C 
ATOM     33  C   UNL     1     -44.050 -63.501 -80.005  0.00  0.00    +0.000 C 
ATOM     34  C   UNL     1     -42.959 -64.470 -79.669  0.00  0.00    +0.000 C 
ATOM     35  C   UNL     1     -44.666 -62.858 -79.074  0.00  0.00    +0.000 C 
ATOM     36  C   UNL     1     -45.370 -62.152 -78.059  0.00  0.00    +0.000 C 
ATOM     37  O   UNL     1     -46.552 -62.327 -77.832  0.00  0.00    +0.000 OA
BRANCH  36  38
ATOM     38  O   UNL     1     -44.621 -61.262 -77.391  0.00  0.00    +0.000 OA
ATOM     39  H   UNL     1     -44.839 -60.400 -77.802  0.00  0.00    +0.000 HD
ENDBRANCH  36  38
ENDBRANCH  29  30
BRANCH  29  40
ATOM     40  O   UNL     1     -44.163 -64.478 -84.615  0.00  0.00    +0.000 OA
ATOM     41  H   UNL     1     -44.444 -64.046 -85.448  0.00  0.00    +0.000 HD
ENDBRANCH  29  40
ENDBRANCH  27  29
ENDBRANCH  25  27
ENDBRANCH   4  25
TORSDOF 12
ENDMDL
MODEL 9
REMARK VINA RESULT:      -5.4     28.003     32.916
REMARK  Name = Leptomycin.pdbqt.pdb
REMARK  12 active torsions:
REMARK  status: ('A' for Active; 'I' for Inactive)
REMARK    1  A    between atoms: C_2  and  C_4
REMARK    2  A    between atoms: C_5  and  C_6
REMARK    3  A    between atoms: C_6  and  C_7
REMARK    4  A    between atoms: C_10  and  C_11
REMARK    5  A    between atoms: C_10  and  C_21
REMARK    6  A    between atoms: C_12  and  C_13
REMARK    7  A    between atoms: C_23  and  C_25
REMARK    8  A    between atoms: C_25  and  C_27
REMARK    9  A    between atoms: C_27  and  C_29
REMARK   10  A    between atoms: C_29  and  O_30
REMARK   11  A    between atoms: C_29  and  C_32
REMARK   12  A    between atoms: C_38  and  O_40
REMARK                            x       y       z     vdW  Elec       q    Type
REMARK                         _______ _______ _______ _____ _____    ______ ____
ROOT
ATOM      1  C   UNL     1     -74.794 -55.262 -20.746  0.00  0.00    +0.000 C 
ATOM      2  C   UNL     1     -73.556 -55.591 -20.926  0.00  0.00    +0.000 C 
ATOM      3  C   UNL     1     -72.564 -55.285 -19.841  0.00  0.00    +0.000 C 
ATOM      4  C   UNL     1     -76.171 -54.969 -20.581  0.00  0.00    +0.000 C 
ATOM      5  C   UNL     1     -76.564 -53.528 -20.864  0.00  0.00    +0.000 C 
ENDROOT
BRANCH   2   6
ATOM      6  C   UNL     1     -73.251 -56.619 -21.852  0.00  0.00    +0.000 C 
ATOM      7  C   UNL     1     -73.031 -57.530 -22.604  0.00  0.00    +0.000 C 
BRANCH   7   8
ATOM      8  C   UNL     1     -72.826 -58.762 -23.490  0.00  0.00    +0.000 C 
BRANCH   8   9
ATOM      9  C   UNL     1     -72.450 -59.908 -24.232  0.00  0.00    +0.000 C 
ATOM     10  C   UNL     1     -72.109 -61.176 -23.512  0.00  0.00    +0.000 C 
ATOM     11  C   UNL     1     -72.283 -59.850 -25.637  0.00  0.00    +0.000 C 
ATOM     12  C   UNL     1     -72.165 -59.604 -26.906  0.00  0.00    +0.000 C 
BRANCH  12  13
ATOM     13  C   UNL     1     -72.340 -58.246 -27.288  0.00  0.00    +0.000 C 
ATOM     14  C   UNL     1     -72.446 -57.137 -27.735  0.00  0.00    +0.000 C 
BRANCH  14  15
ATOM     15  C   UNL     1     -72.537 -55.880 -28.387  0.00  0.00    +0.000 A 
ATOM     16  O   UNL     1     -73.687 -55.051 -28.042  0.00  0.00    +0.000 OA
ATOM     17  C   UNL     1     -73.876 -53.783 -28.585  0.00  0.00    +0.000 A 
ATOM     18  O   UNL     1     -74.800 -53.035 -28.303  0.00  0.00    +0.000 OA
ATOM     19  C   UNL     1     -72.834 -53.441 -29.508  0.00  0.00    +0.000 A 
ATOM     20  C   UNL     1     -71.880 -54.084 -29.828  0.00  0.00    +0.000 A 
ATOM     21  C   UNL     1     -71.554 -55.374 -29.351  0.00  0.00    +0.000 A 
ATOM     22  C   UNL     1     -70.303 -56.065 -29.789  0.00  0.00    +0.000 C 
ENDBRANCH  14  15
ENDBRANCH  12  13
BRANCH  12  23
ATOM     23  C   UNL     1     -71.860 -60.666 -27.793  0.00  0.00    +0.000 C 
ATOM     24  C   UNL     1     -71.522 -61.812 -28.754  0.00  0.00    +0.000 C 
ENDBRANCH  12  23
ENDBRANCH   8   9
ENDBRANCH   7   8
ENDBRANCH   2   6
BRANCH   4  25
ATOM     25  C   UNL     1     -77.168 -56.078 -20.700  0.00  0.00    +0.000 C 
ATOM     26  O   UNL     1     -77.693 -56.603 -19.713  0.00  0.00    +0.000 OA
BRANCH  25  27
ATOM     27  C   UNL     1     -77.468 -56.577 -22.077  0.00  0.00    +0.000 C 
ATOM     28  C   UNL     1     -76.680 -57.758 -22.638  0.00  0.00    +0.000 C 
BRANCH  27  29
ATOM     29  C   UNL     1     -78.289 -55.750 -22.955  0.00  0.00    +0.000 C 
BRANCH  29  30
ATOM     30  C   UNL     1     -77.861 -54.764 -23.931  0.00  0.00    +0.000 C 
ATOM     31  C   UNL     1     -78.840 -53.737 -24.459  0.00  0.00    +0.000 C 
ATOM     32  C   UNL     1     -76.514 -54.572 -24.314  0.00  0.00    +0.000 C 
ATOM     33  C   UNL     1     -75.191 -54.342 -24.748  0.00  0.00    +0.000 C 
ATOM     34  C   UNL     1     -74.305 -55.520 -25.015  0.00  0.00    +0.000 C 
ATOM     35  C   UNL     1     -74.722 -53.143 -24.798  0.00  0.00    +0.000 C 
ATOM     36  C   UNL     1     -74.219 -51.814 -24.830  0.00  0.00    +0.000 C 
ATOM     37  O   UNL     1     -74.159 -51.105 -23.843  0.00  0.00    +0.000 OA
BRANCH  36  38
ATOM     38  O   UNL     1     -73.837 -51.402 -26.049  0.00  0.00    +0.000 OA
ATOM     39  H   UNL     1     -73.397 -50.541 -25.891  0.00  0.00    +0.000 HD
ENDBRANCH  36  38
ENDBRANCH  29  30
BRANCH  29  40
ATOM     40  O   UNL     1     -79.667 -55.963 -22.872  0.00  0.00    +0.000 OA
ATOM     41  H   UNL     1     -79.923 -56.381 -22.024  0.00  0.00    +0.000 HD
ENDBRANCH  29  40
ENDBRANCH  27  29
ENDBRANCH  25  27
ENDBRANCH   4  25
TORSDOF 12
ENDMDL
