MODEL 1
REMARK VINA RESULT:      -6.5      0.000      0.000
REMARK  Name = Lobelin.pdbqt.pdb
REMARK  3 active torsions:
REMARK  status: ('A' for Active; 'I' for Inactive)
REMARK    1  A    between atoms: C_9  and  O_10
REMARK    2  A    between atoms: C_9  and  C_12
REMARK    3  A    between atoms: C_19  and  C_21
REMARK                            x       y       z     vdW  Elec       q    Type
REMARK                         _______ _______ _______ _____ _____    ______ ____
ROOT
ATOM      1  N   UNL     1     -69.386 -55.764 -38.118  0.00  0.00    +0.000 N 
ATOM      2  C   UNL     1     -69.361 -54.679 -39.092  0.00  0.00    +0.000 C 
ATOM      3  C   UNL     1     -70.527 -55.916 -37.219  0.00  0.00    +0.000 C 
ATOM      4  C   UNL     1     -70.528 -53.854 -39.099  0.00  0.00    +0.000 C 
ATOM      5  C   UNL     1     -71.574 -54.965 -37.415  0.00  0.00    +0.000 C 
ATOM      6  C   UNL     1     -71.834 -53.782 -38.329  0.00  0.00    +0.000 C 
ATOM      7  C   UNL     1     -68.228 -56.615 -37.954  0.00  0.00    +0.000 C 
ATOM      8  C   UNL     1     -68.267 -54.465 -39.974  0.00  0.00    +0.000 C 
ATOM      9  C   UNL     1     -67.182 -54.275 -40.868  0.00  0.00    +0.000 C 
ATOM     10  C   UNL     1     -70.589 -56.938 -36.237  0.00  0.00    +0.000 C 
ATOM     11  C   UNL     1     -70.665 -57.995 -35.264  0.00  0.00    +0.000 C 
ATOM     12  O   UNL     1     -71.653 -58.715 -35.243  0.00  0.00    +0.000 OA
ENDROOT
BRANCH   9  13
ATOM     13  C   UNL     1     -66.773 -55.244 -41.884  0.00  0.00    +0.000 A 
ATOM     14  C   UNL     1     -67.555 -55.462 -43.022  0.00  0.00    +0.000 A 
ATOM     15  C   UNL     1     -67.165 -56.385 -43.991  0.00  0.00    +0.000 A 
ATOM     16  C   UNL     1     -65.984 -57.103 -43.832  0.00  0.00    +0.000 A 
ATOM     17  C   UNL     1     -65.195 -56.899 -42.704  0.00  0.00    +0.000 A 
ATOM     18  C   UNL     1     -65.590 -55.975 -41.738  0.00  0.00    +0.000 A 
ENDBRANCH   9  13
BRANCH  11  19
ATOM     19  C   UNL     1     -69.549 -58.163 -34.318  0.00  0.00    +0.000 A 
ATOM     20  C   UNL     1     -68.499 -59.040 -34.586  0.00  0.00    +0.000 A 
ATOM     21  C   UNL     1     -67.454 -59.172 -33.674  0.00  0.00    +0.000 A 
ATOM     22  C   UNL     1     -67.459 -58.426 -32.498  0.00  0.00    +0.000 A 
ATOM     23  C   UNL     1     -68.507 -57.546 -32.232  0.00  0.00    +0.000 A 
ATOM     24  C   UNL     1     -69.552 -57.413 -33.142  0.00  0.00    +0.000 A 
ENDBRANCH  11  19
BRANCH   9  25
ATOM     25  O   UNL     1     -66.458 -53.106 -40.796  0.00  0.00    +0.000 OA
ATOM     26  H   UNL     1     -66.561 -52.668 -39.934  0.00  0.00    +0.000 HD
ENDBRANCH   9  25
TORSDOF 3
ENDMDL
MODEL 2
REMARK VINA RESULT:      -6.4     15.965     20.649
REMARK  Name = Lobelin.pdbqt.pdb
REMARK  3 active torsions:
REMARK  status: ('A' for Active; 'I' for Inactive)
REMARK    1  A    between atoms: C_9  and  O_10
REMARK    2  A    between atoms: C_9  and  C_12
REMARK    3  A    between atoms: C_19  and  C_21
REMARK                            x       y       z     vdW  Elec       q    Type
REMARK                         _______ _______ _______ _____ _____    ______ ____
ROOT
ATOM      1  N   UNL     1     -60.601 -56.586 -56.841  0.00  0.00    +0.000 N 
ATOM      2  C   UNL     1     -60.923 -56.081 -58.172  0.00  0.00    +0.000 C 
ATOM      3  C   UNL     1     -61.671 -56.945 -55.915  0.00  0.00    +0.000 C 
ATOM      4  C   UNL     1     -62.319 -56.022 -58.468  0.00  0.00    +0.000 C 
ATOM      5  C   UNL     1     -62.991 -56.796 -56.440  0.00  0.00    +0.000 C 
ATOM      6  C   UNL     1     -63.615 -56.336 -57.743  0.00  0.00    +0.000 C 
ATOM      7  C   UNL     1     -59.227 -56.613 -56.392  0.00  0.00    +0.000 C 
ATOM      8  C   UNL     1     -59.925 -55.691 -59.106  0.00  0.00    +0.000 C 
ATOM      9  C   UNL     1     -58.922 -55.328 -60.041  0.00  0.00    +0.000 C 
ATOM     10  C   UNL     1     -61.413 -57.415 -54.603  0.00  0.00    +0.000 C 
ATOM     11  C   UNL     1     -61.149 -57.923 -53.282  0.00  0.00    +0.000 C 
ATOM     12  O   UNL     1     -61.667 -58.974 -52.933  0.00  0.00    +0.000 OA
ENDROOT
BRANCH   9  13
ATOM     13  C   UNL     1     -57.935 -56.257 -60.593  0.00  0.00    +0.000 A 
ATOM     14  C   UNL     1     -58.050 -57.633 -60.379  0.00  0.00    +0.000 A 
ATOM     15  C   UNL     1     -57.110 -58.519 -60.904  0.00  0.00    +0.000 A 
ATOM     16  C   UNL     1     -56.042 -58.035 -61.653  0.00  0.00    +0.000 A 
ATOM     17  C   UNL     1     -55.913 -56.667 -61.874  0.00  0.00    +0.000 A 
ATOM     18  C   UNL     1     -56.855 -55.786 -61.345  0.00  0.00    +0.000 A 
ENDBRANCH   9  13
BRANCH  11  19
ATOM     19  C   UNL     1     -60.268 -57.147 -52.392  0.00  0.00    +0.000 A 
ATOM     20  C   UNL     1     -58.944 -56.880 -52.739  0.00  0.00    +0.000 A 
ATOM     21  C   UNL     1     -58.138 -56.137 -51.880  0.00  0.00    +0.000 A 
ATOM     22  C   UNL     1     -58.655 -55.662 -50.677  0.00  0.00    +0.000 A 
ATOM     23  C   UNL     1     -59.979 -55.926 -50.332  0.00  0.00    +0.000 A 
ATOM     24  C   UNL     1     -60.787 -56.668 -51.190  0.00  0.00    +0.000 A 
ENDBRANCH  11  19
BRANCH   9  25
ATOM     25  O   UNL     1     -58.859 -54.023 -60.476  0.00  0.00    +0.000 OA
ATOM     26  H   UNL     1     -59.228 -53.921 -61.370  0.00  0.00    +0.000 HD
ENDBRANCH   9  25
TORSDOF 3
ENDMDL
MODEL 3
REMARK VINA RESULT:      -6.3     16.764     20.520
REMARK  Name = Lobelin.pdbqt.pdb
REMARK  3 active torsions:
REMARK  status: ('A' for Active; 'I' for Inactive)
REMARK    1  A    between atoms: C_9  and  O_10
REMARK    2  A    between atoms: C_9  and  C_12
REMARK    3  A    between atoms: C_19  and  C_21
REMARK                            x       y       z     vdW  Elec       q    Type
REMARK                         _______ _______ _______ _____ _____    ______ ____
ROOT
ATOM      1  N   UNL     1     -65.559 -47.691 -56.077  0.00  0.00    +0.000 N 
ATOM      2  C   UNL     1     -66.124 -47.499 -57.408  0.00  0.00    +0.000 C 
ATOM      3  C   UNL     1     -66.193 -48.611 -55.138  0.00  0.00    +0.000 C 
ATOM      4  C   UNL     1     -67.275 -48.297 -57.691  0.00  0.00    +0.000 C 
ATOM      5  C   UNL     1     -67.338 -49.295 -55.651  0.00  0.00    +0.000 C 
ATOM      6  C   UNL     1     -68.117 -49.320 -56.951  0.00  0.00    +0.000 C 
ATOM      7  C   UNL     1     -64.445 -46.878 -55.640  0.00  0.00    +0.000 C 
ATOM      8  C   UNL     1     -65.566 -46.597 -58.354  0.00  0.00    +0.000 C 
ATOM      9  C   UNL     1     -64.988 -45.713 -59.302  0.00  0.00    +0.000 C 
ATOM     10  C   UNL     1     -65.700 -48.815 -53.824  0.00  0.00    +0.000 C 
ATOM     11  C   UNL     1     -65.179 -49.045 -52.503  0.00  0.00    +0.000 C 
ATOM     12  O   UNL     1     -64.958 -50.192 -52.140  0.00  0.00    +0.000 OA
ENDROOT
BRANCH   9  13
ATOM     13  C   UNL     1     -63.642 -45.866 -59.856  0.00  0.00    +0.000 A 
ATOM     14  C   UNL     1     -63.244 -47.067 -60.449  0.00  0.00    +0.000 A 
ATOM     15  C   UNL     1     -61.962 -47.213 -60.977  0.00  0.00    +0.000 A 
ATOM     16  C   UNL     1     -61.062 -46.154 -60.918  0.00  0.00    +0.000 A 
ATOM     17  C   UNL     1     -61.443 -44.952 -60.331  0.00  0.00    +0.000 A 
ATOM     18  C   UNL     1     -62.725 -44.812 -59.804  0.00  0.00    +0.000 A 
ENDBRANCH   9  13
BRANCH  11  19
ATOM     19  C   UNL     1     -64.941 -47.884 -51.627  0.00  0.00    +0.000 A 
ATOM     20  C   UNL     1     -66.002 -47.170 -51.070  0.00  0.00    +0.000 A 
ATOM     21  C   UNL     1     -65.746 -46.081 -50.241  0.00  0.00    +0.000 A 
ATOM     22  C   UNL     1     -64.432 -45.708 -49.968  0.00  0.00    +0.000 A 
ATOM     23  C   UNL     1     -63.372 -46.424 -50.522  0.00  0.00    +0.000 A 
ATOM     24  C   UNL     1     -63.626 -47.513 -51.351  0.00  0.00    +0.000 A 
ENDBRANCH  11  19
BRANCH   9  25
ATOM     25  O   UNL     1     -65.726 -44.640 -59.748  0.00  0.00    +0.000 OA
ATOM     26  H   UNL     1     -65.170 -43.859 -59.910  0.00  0.00    +0.000 HD
ENDBRANCH   9  25
TORSDOF 3
ENDMDL
MODEL 4
REMARK VINA RESULT:      -6.3     15.973     22.182
REMARK  Name = Lobelin.pdbqt.pdb
REMARK  3 active torsions:
REMARK  status: ('A' for Active; 'I' for Inactive)
REMARK    1  A    between atoms: C_9  and  O_10
REMARK    2  A    between atoms: C_9  and  C_12
REMARK    3  A    between atoms: C_19  and  C_21
REMARK                            x       y       z     vdW  Elec       q    Type
REMARK                         _______ _______ _______ _____ _____    ______ ____
ROOT
ATOM      1  N   UNL     1     -60.399 -56.617 -57.041  0.00  0.00    +0.000 N 
ATOM      2  C   UNL     1     -61.432 -56.985 -56.079  0.00  0.00    +0.000 C 
ATOM      3  C   UNL     1     -60.771 -56.143 -58.371  0.00  0.00    +0.000 C 
ATOM      4  C   UNL     1     -62.772 -56.801 -56.540  0.00  0.00    +0.000 C 
ATOM      5  C   UNL     1     -62.178 -56.046 -58.599  0.00  0.00    +0.000 C 
ATOM      6  C   UNL     1     -63.445 -56.323 -57.814  0.00  0.00    +0.000 C 
ATOM      7  C   UNL     1     -59.005 -56.839 -56.725  0.00  0.00    +0.000 C 
ATOM      8  C   UNL     1     -61.130 -57.478 -54.781  0.00  0.00    +0.000 C 
ATOM      9  C   UNL     1     -60.819 -57.945 -53.477  0.00  0.00    +0.000 C 
ATOM     10  C   UNL     1     -59.806 -55.798 -59.351  0.00  0.00    +0.000 C 
ATOM     11  C   UNL     1     -58.826 -55.415 -60.333  0.00  0.00    +0.000 C 
ATOM     12  O   UNL     1     -58.910 -54.316 -60.862  0.00  0.00    +0.000 OA
ENDROOT
BRANCH   9  13
ATOM     13  C   UNL     1     -60.110 -57.158 -52.468  0.00  0.00    +0.000 A 
ATOM     14  C   UNL     1     -58.760 -56.836 -52.630  0.00  0.00    +0.000 A 
ATOM     15  C   UNL     1     -58.083 -56.086 -51.669  0.00  0.00    +0.000 A 
ATOM     16  C   UNL     1     -58.754 -55.648 -50.532  0.00  0.00    +0.000 A 
ATOM     17  C   UNL     1     -60.098 -55.961 -50.354  0.00  0.00    +0.000 A 
ATOM     18  C   UNL     1     -60.769 -56.712 -51.318  0.00  0.00    +0.000 A 
ENDBRANCH   9  13
BRANCH  11  19
ATOM     19  C   UNL     1     -57.761 -56.374 -60.674  0.00  0.00    +0.000 A 
ATOM     20  C   UNL     1     -56.648 -55.983 -61.419  0.00  0.00    +0.000 A 
ATOM     21  C   UNL     1     -55.654 -56.911 -61.720  0.00  0.00    +0.000 A 
ATOM     22  C   UNL     1     -55.771 -58.226 -61.276  0.00  0.00    +0.000 A 
ATOM     23  C   UNL     1     -56.882 -58.615 -60.528  0.00  0.00    +0.000 A 
ATOM     24  C   UNL     1     -57.877 -57.689 -60.226  0.00  0.00    +0.000 A 
ENDBRANCH  11  19
BRANCH   9  25
ATOM     25  O   UNL     1     -61.207 -59.215 -53.115  0.00  0.00    +0.000 OA
ATOM     26  H   UNL     1     -62.174 -59.296 -53.058  0.00  0.00    +0.000 HD
ENDBRANCH   9  25
TORSDOF 3
ENDMDL
MODEL 5
REMARK VINA RESULT:      -6.2      7.165     12.155
REMARK  Name = Lobelin.pdbqt.pdb
REMARK  3 active torsions:
REMARK  status: ('A' for Active; 'I' for Inactive)
REMARK    1  A    between atoms: C_9  and  O_10
REMARK    2  A    between atoms: C_9  and  C_12
REMARK    3  A    between atoms: C_19  and  C_21
REMARK                            x       y       z     vdW  Elec       q    Type
REMARK                         _______ _______ _______ _____ _____    ______ ____
ROOT
ATOM      1  N   UNL     1     -71.165 -56.728 -29.666  0.00  0.00    +0.000 N 
ATOM      2  C   UNL     1     -71.955 -55.740 -28.940  0.00  0.00    +0.000 C 
ATOM      3  C   UNL     1     -70.268 -56.305 -30.738  0.00  0.00    +0.000 C 
ATOM      4  C   UNL     1     -71.736 -54.386 -29.340  0.00  0.00    +0.000 C 
ATOM      5  C   UNL     1     -70.221 -54.894 -30.957  0.00  0.00    +0.000 C 
ATOM      6  C   UNL     1     -70.884 -53.663 -30.368  0.00  0.00    +0.000 C 
ATOM      7  C   UNL     1     -71.360 -58.138 -29.412  0.00  0.00    +0.000 C 
ATOM      8  C   UNL     1     -72.863 -56.095 -27.906  0.00  0.00    +0.000 C 
ATOM      9  C   UNL     1     -73.749 -56.456 -26.858  0.00  0.00    +0.000 C 
ATOM     10  C   UNL     1     -69.498 -57.227 -31.492  0.00  0.00    +0.000 C 
ATOM     11  C   UNL     1     -68.692 -58.160 -32.234  0.00  0.00    +0.000 C 
ATOM     12  O   UNL     1     -67.488 -57.968 -32.322  0.00  0.00    +0.000 OA
ENDROOT
BRANCH   9  13
ATOM     13  C   UNL     1     -73.330 -57.092 -25.608  0.00  0.00    +0.000 A 
ATOM     14  C   UNL     1     -72.406 -58.140 -25.613  0.00  0.00    +0.000 A 
ATOM     15  C   UNL     1     -72.006 -58.747 -24.424  0.00  0.00    +0.000 A 
ATOM     16  C   UNL     1     -72.529 -58.308 -23.211  0.00  0.00    +0.000 A 
ATOM     17  C   UNL     1     -73.451 -57.266 -23.189  0.00  0.00    +0.000 A 
ATOM     18  C   UNL     1     -73.847 -56.664 -24.382  0.00  0.00    +0.000 A 
ENDBRANCH   9  13
BRANCH  11  19
ATOM     19  C   UNL     1     -69.355 -59.310 -32.872  0.00  0.00    +0.000 A 
ATOM     20  C   UNL     1     -70.630 -59.720 -32.479  0.00  0.00    +0.000 A 
ATOM     21  C   UNL     1     -71.233 -60.807 -33.106  0.00  0.00    +0.000 A 
ATOM     22  C   UNL     1     -70.564 -61.482 -34.125  0.00  0.00    +0.000 A 
ATOM     23  C   UNL     1     -69.292 -61.071 -34.519  0.00  0.00    +0.000 A 
ATOM     24  C   UNL     1     -68.687 -59.984 -33.894  0.00  0.00    +0.000 A 
ENDBRANCH  11  19
BRANCH   9  25
ATOM     25  O   UNL     1     -75.092 -56.193 -27.001  0.00  0.00    +0.000 OA
ATOM     26  H   UNL     1     -75.405 -56.386 -27.901  0.00  0.00    +0.000 HD
ENDBRANCH   9  25
TORSDOF 3
ENDMDL
MODEL 6
REMARK VINA RESULT:      -6.2      3.289      9.442
REMARK  Name = Lobelin.pdbqt.pdb
REMARK  3 active torsions:
REMARK  status: ('A' for Active; 'I' for Inactive)
REMARK    1  A    between atoms: C_9  and  O_10
REMARK    2  A    between atoms: C_9  and  C_12
REMARK    3  A    between atoms: C_19  and  C_21
REMARK                            x       y       z     vdW  Elec       q    Type
REMARK                         _______ _______ _______ _____ _____    ______ ____
ROOT
ATOM      1  N   UNL     1     -69.192 -57.161 -33.943  0.00  0.00    +0.000 N 
ATOM      2  C   UNL     1     -68.867 -57.319 -32.530  0.00  0.00    +0.000 C 
ATOM      3  C   UNL     1     -68.483 -57.945 -34.950  0.00  0.00    +0.000 C 
ATOM      4  C   UNL     1     -67.867 -58.301 -32.252  0.00  0.00    +0.000 C 
ATOM      5  C   UNL     1     -67.520 -58.862 -34.426  0.00  0.00    +0.000 C 
ATOM      6  C   UNL     1     -67.000 -59.252 -33.056  0.00  0.00    +0.000 C 
ATOM      7  C   UNL     1     -70.127 -56.139 -34.360  0.00  0.00    +0.000 C 
ATOM      8  C   UNL     1     -69.505 -56.565 -31.508  0.00  0.00    +0.000 C 
ATOM      9  C   UNL     1     -70.165 -55.826 -30.492  0.00  0.00    +0.000 C 
ATOM     10  C   UNL     1     -68.742 -57.810 -36.338  0.00  0.00    +0.000 C 
ATOM     11  C   UNL     1     -69.029 -57.697 -37.744  0.00  0.00    +0.000 C 
ATOM     12  O   UNL     1     -69.283 -58.707 -38.383  0.00  0.00    +0.000 OA
ENDROOT
BRANCH   9  13
ATOM     13  C   UNL     1     -71.598 -55.912 -30.210  0.00  0.00    +0.000 A 
ATOM     14  C   UNL     1     -72.184 -55.107 -29.229  0.00  0.00    +0.000 A 
ATOM     15  C   UNL     1     -73.549 -55.188 -28.960  0.00  0.00    +0.000 A 
ATOM     16  C   UNL     1     -74.346 -56.080 -29.671  0.00  0.00    +0.000 A 
ATOM     17  C   UNL     1     -73.777 -56.890 -30.650  0.00  0.00    +0.000 A 
ATOM     18  C   UNL     1     -72.412 -56.804 -30.914  0.00  0.00    +0.000 A 
ENDBRANCH   9  13
BRANCH  11  19
ATOM     19  C   UNL     1     -68.992 -56.361 -38.364  0.00  0.00    +0.000 A 
ATOM     20  C   UNL     1     -70.167 -55.677 -38.677  0.00  0.00    +0.000 A 
ATOM     21  C   UNL     1     -70.100 -54.413 -39.257  0.00  0.00    +0.000 A 
ATOM     22  C   UNL     1     -68.861 -53.833 -39.521  0.00  0.00    +0.000 A 
ATOM     23  C   UNL     1     -67.688 -54.515 -39.205  0.00  0.00    +0.000 A 
ATOM     24  C   UNL     1     -67.752 -55.779 -38.625  0.00  0.00    +0.000 A 
ENDBRANCH  11  19
BRANCH   9  25
ATOM     25  O   UNL     1     -69.427 -54.971 -29.705  0.00  0.00    +0.000 OA
ATOM     26  H   UNL     1     -68.985 -54.284 -30.232  0.00  0.00    +0.000 HD
ENDBRANCH   9  25
TORSDOF 3
ENDMDL
MODEL 7
REMARK VINA RESULT:      -6.2      9.547     15.672
REMARK  Name = Lobelin.pdbqt.pdb
REMARK  3 active torsions:
REMARK  status: ('A' for Active; 'I' for Inactive)
REMARK    1  A    between atoms: C_9  and  O_10
REMARK    2  A    between atoms: C_9  and  C_12
REMARK    3  A    between atoms: C_19  and  C_21
REMARK                            x       y       z     vdW  Elec       q    Type
REMARK                         _______ _______ _______ _____ _____    ______ ____
ROOT
ATOM      1  N   UNL     1     -72.712 -58.271 -25.355  0.00  0.00    +0.000 N 
ATOM      2  C   UNL     1     -72.774 -58.606 -23.937  0.00  0.00    +0.000 C 
ATOM      3  C   UNL     1     -72.267 -59.268 -26.324  0.00  0.00    +0.000 C 
ATOM      4  C   UNL     1     -72.415 -59.952 -23.623  0.00  0.00    +0.000 C 
ATOM      5  C   UNL     1     -71.957 -60.547 -25.768  0.00  0.00    +0.000 C 
ATOM      6  C   UNL     1     -71.950 -61.178 -24.388  0.00  0.00    +0.000 C 
ATOM      7  C   UNL     1     -72.969 -56.916 -25.791  0.00  0.00    +0.000 C 
ATOM      8  C   UNL     1     -73.174 -57.669 -22.946  0.00  0.00    +0.000 C 
ATOM      9  C   UNL     1     -73.598 -56.735 -21.965  0.00  0.00    +0.000 C 
ATOM     10  C   UNL     1     -72.163 -58.987 -27.710  0.00  0.00    +0.000 C 
ATOM     11  C   UNL     1     -72.090 -58.710 -29.121  0.00  0.00    +0.000 C 
ATOM     12  O   UNL     1     -72.655 -59.458 -29.905  0.00  0.00    +0.000 OA
ENDROOT
BRANCH   9  13
ATOM     13  C   UNL     1     -74.933 -56.137 -21.920  0.00  0.00    +0.000 A 
ATOM     14  C   UNL     1     -75.276 -55.085 -22.774  0.00  0.00    +0.000 A 
ATOM     15  C   UNL     1     -76.547 -54.515 -22.732  0.00  0.00    +0.000 A 
ATOM     16  C   UNL     1     -77.494 -54.996 -21.832  0.00  0.00    +0.000 A 
ATOM     17  C   UNL     1     -77.168 -56.042 -20.975  0.00  0.00    +0.000 A 
ATOM     18  C   UNL     1     -75.895 -56.607 -21.021  0.00  0.00    +0.000 A 
ENDBRANCH   9  13
BRANCH  11  19
ATOM     19  C   UNL     1     -71.323 -57.535 -29.568  0.00  0.00    +0.000 A 
ATOM     20  C   UNL     1     -70.724 -57.499 -30.828  0.00  0.00    +0.000 A 
ATOM     21  C   UNL     1     -70.010 -56.371 -31.225  0.00  0.00    +0.000 A 
ATOM     22  C   UNL     1     -69.897 -55.280 -30.365  0.00  0.00    +0.000 A 
ATOM     23  C   UNL     1     -70.498 -55.315 -29.109  0.00  0.00    +0.000 A 
ATOM     24  C   UNL     1     -71.212 -56.442 -28.709  0.00  0.00    +0.000 A 
ENDBRANCH  11  19
BRANCH   9  25
ATOM     25  O   UNL     1     -72.715 -56.357 -20.980  0.00  0.00    +0.000 OA
ATOM     26  H   UNL     1     -72.998 -55.542 -20.532  0.00  0.00    +0.000 HD
ENDBRANCH   9  25
TORSDOF 3
ENDMDL
MODEL 8
REMARK VINA RESULT:      -6.0      3.013      5.394
REMARK  Name = Lobelin.pdbqt.pdb
REMARK  3 active torsions:
REMARK  status: ('A' for Active; 'I' for Inactive)
REMARK    1  A    between atoms: C_9  and  O_10
REMARK    2  A    between atoms: C_9  and  C_12
REMARK    3  A    between atoms: C_19  and  C_21
REMARK                            x       y       z     vdW  Elec       q    Type
REMARK                         _______ _______ _______ _____ _____    ______ ____
ROOT
ATOM      1  N   UNL     1     -68.882 -57.213 -34.731  0.00  0.00    +0.000 N 
ATOM      2  C   UNL     1     -68.063 -58.086 -35.566  0.00  0.00    +0.000 C 
ATOM      3  C   UNL     1     -68.845 -57.344 -33.277  0.00  0.00    +0.000 C 
ATOM      4  C   UNL     1     -67.236 -59.001 -34.844  0.00  0.00    +0.000 C 
ATOM      5  C   UNL     1     -67.940 -58.335 -32.788  0.00  0.00    +0.000 C 
ATOM      6  C   UNL     1     -66.976 -59.341 -33.388  0.00  0.00    +0.000 C 
ATOM      7  C   UNL     1     -69.824 -56.303 -35.344  0.00  0.00    +0.000 C 
ATOM      8  C   UNL     1     -68.077 -58.022 -36.985  0.00  0.00    +0.000 C 
ATOM      9  C   UNL     1     -68.079 -57.936 -38.402  0.00  0.00    +0.000 C 
ATOM     10  C   UNL     1     -69.640 -56.539 -32.423  0.00  0.00    +0.000 C 
ATOM     11  C   UNL     1     -70.423 -55.699 -31.555  0.00  0.00    +0.000 C 
ATOM     12  O   UNL     1     -69.866 -55.093 -30.651  0.00  0.00    +0.000 OA
ENDROOT
BRANCH   9  13
ATOM     13  C   UNL     1     -67.652 -56.756 -39.155  0.00  0.00    +0.000 A 
ATOM     14  C   UNL     1     -67.648 -55.490 -38.560  0.00  0.00    +0.000 A 
ATOM     15  C   UNL     1     -67.241 -54.366 -39.276  0.00  0.00    +0.000 A 
ATOM     16  C   UNL     1     -66.833 -54.496 -40.600  0.00  0.00    +0.000 A 
ATOM     17  C   UNL     1     -66.833 -55.748 -41.207  0.00  0.00    +0.000 A 
ATOM     18  C   UNL     1     -67.241 -56.869 -40.486  0.00  0.00    +0.000 A 
ENDBRANCH   9  13
BRANCH  11  19
ATOM     19  C   UNL     1     -71.875 -55.610 -31.783  0.00  0.00    +0.000 A 
ATOM     20  C   UNL     1     -72.647 -54.628 -31.162  0.00  0.00    +0.000 A 
ATOM     21  C   UNL     1     -74.017 -54.566 -31.403  0.00  0.00    +0.000 A 
ATOM     22  C   UNL     1     -74.614 -55.483 -32.265  0.00  0.00    +0.000 A 
ATOM     23  C   UNL     1     -73.843 -56.461 -32.889  0.00  0.00    +0.000 A 
ATOM     24  C   UNL     1     -72.473 -56.526 -32.649  0.00  0.00    +0.000 A 
ENDBRANCH  11  19
BRANCH   9  25
ATOM     25  O   UNL     1     -68.498 -59.022 -39.135  0.00  0.00    +0.000 OA
ATOM     26  H   UNL     1     -68.636 -58.798 -40.070  0.00  0.00    +0.000 HD
ENDBRANCH   9  25
TORSDOF 3
ENDMDL
MODEL 9
REMARK VINA RESULT:      -6.0     17.000     19.800
REMARK  Name = Lobelin.pdbqt.pdb
REMARK  3 active torsions:
REMARK  status: ('A' for Active; 'I' for Inactive)
REMARK    1  A    between atoms: C_9  and  O_10
REMARK    2  A    between atoms: C_9  and  C_12
REMARK    3  A    between atoms: C_19  and  C_21
REMARK                            x       y       z     vdW  Elec       q    Type
REMARK                         _______ _______ _______ _____ _____    ______ ____
ROOT
ATOM      1  N   UNL     1     -64.299 -46.987 -53.703  0.00  0.00    +0.000 N 
ATOM      2  C   UNL     1     -65.034 -47.673 -54.761  0.00  0.00    +0.000 C 
ATOM      3  C   UNL     1     -64.333 -47.501 -52.337  0.00  0.00    +0.000 C 
ATOM      4  C   UNL     1     -65.715 -48.858 -54.346  0.00  0.00    +0.000 C 
ATOM      5  C   UNL     1     -65.087 -48.702 -52.167  0.00  0.00    +0.000 C 
ATOM      6  C   UNL     1     -65.908 -49.623 -53.050  0.00  0.00    +0.000 C 
ATOM      7  C   UNL     1     -63.639 -45.730 -53.978  0.00  0.00    +0.000 C 
ATOM      8  C   UNL     1     -65.059 -47.204 -56.103  0.00  0.00    +0.000 C 
ATOM      9  C   UNL     1     -65.059 -46.745 -57.445  0.00  0.00    +0.000 C 
ATOM     10  C   UNL     1     -63.658 -46.858 -51.267  0.00  0.00    +0.000 C 
ATOM     11  C   UNL     1     -62.946 -46.225 -50.190  0.00  0.00    +0.000 C 
ATOM     12  O   UNL     1     -62.186 -46.892 -49.503  0.00  0.00    +0.000 OA
ENDROOT
BRANCH   9  13
ATOM     13  C   UNL     1     -63.863 -46.654 -58.284  0.00  0.00    +0.000 A 
ATOM     14  C   UNL     1     -63.943 -46.844 -59.667  0.00  0.00    +0.000 A 
ATOM     15  C   UNL     1     -62.805 -46.758 -60.467  0.00  0.00    +0.000 A 
ATOM     16  C   UNL     1     -61.570 -46.479 -59.890  0.00  0.00    +0.000 A 
ATOM     17  C   UNL     1     -61.473 -46.289 -58.515  0.00  0.00    +0.000 A 
ATOM     18  C   UNL     1     -62.615 -46.377 -57.720  0.00  0.00    +0.000 A 
ENDBRANCH   9  13
BRANCH  11  19
ATOM     19  C   UNL     1     -63.170 -44.789 -49.946  0.00  0.00    +0.000 A 
ATOM     20  C   UNL     1     -62.325 -44.056 -49.113  0.00  0.00    +0.000 A 
ATOM     21  C   UNL     1     -62.559 -42.699 -48.908  0.00  0.00    +0.000 A 
ATOM     22  C   UNL     1     -63.636 -42.075 -49.535  0.00  0.00    +0.000 A 
ATOM     23  C   UNL     1     -64.478 -42.807 -50.370  0.00  0.00    +0.000 A 
ATOM     24  C   UNL     1     -64.246 -44.165 -50.577  0.00  0.00    +0.000 A 
ENDBRANCH  11  19
BRANCH   9  25
ATOM     25  O   UNL     1     -66.250 -46.360 -58.017  0.00  0.00    +0.000 OA
ATOM     26  H   UNL     1     -66.112 -45.827 -58.818  0.00  0.00    +0.000 HD
ENDBRANCH   9  25
TORSDOF 3
ENDMDL
