MODEL 1
REMARK VINA RESULT:      -5.3      0.000      0.000
REMARK  Name = LUCANTHONE.pdbqt.pdb
REMARK  5 active torsions:
REMARK  status: ('A' for Active; 'I' for Inactive)
REMARK    1  A    between atoms: C_3  and  N_17
REMARK    2  A    between atoms: N_17  and  C_19
REMARK    3  A    between atoms: C_20  and  N_21
REMARK    4  A    between atoms: N_21  and  C_22
REMARK    5  A    between atoms: N_21  and  C_24
REMARK                            x       y       z     vdW  Elec       q    Type
REMARK                         _______ _______ _______ _____ _____    ______ ____
ROOT
ATOM      1  S   UNL     1     -63.698 -45.619 -56.779  0.00  0.00    +0.000 S 
ATOM      2  O   UNL     1     -62.317 -46.994 -60.653  0.00  0.00    +0.000 OA
ATOM      3  C   UNL     1     -60.980 -44.707 -59.755  0.00  0.00    +0.000 A 
ATOM      4  C   UNL     1     -62.057 -45.300 -59.038  0.00  0.00    +0.000 A 
ATOM      5  C   UNL     1     -62.381 -44.865 -57.737  0.00  0.00    +0.000 A 
ATOM      6  C   UNL     1     -61.616 -43.818 -57.170  0.00  0.00    +0.000 A 
ATOM      7  C   UNL     1     -62.815 -46.405 -59.693  0.00  0.00    +0.000 A 
ATOM      8  C   UNL     1     -60.274 -43.657 -59.158  0.00  0.00    +0.000 A 
ATOM      9  C   UNL     1     -64.158 -46.801 -59.250  0.00  0.00    +0.000 A 
ATOM     10  C   UNL     1     -60.575 -43.225 -57.877  0.00  0.00    +0.000 A 
ATOM     11  C   UNL     1     -64.645 -46.474 -57.993  0.00  0.00    +0.000 A 
ATOM     12  C   UNL     1     -61.860 -43.258 -55.785  0.00  0.00    +0.000 C 
ATOM     13  C   UNL     1     -64.944 -47.541 -60.140  0.00  0.00    +0.000 A 
ATOM     14  C   UNL     1     -65.930 -46.888 -57.637  0.00  0.00    +0.000 A 
ATOM     15  C   UNL     1     -66.227 -47.944 -59.780  0.00  0.00    +0.000 A 
ATOM     16  C   UNL     1     -66.723 -47.614 -58.524  0.00  0.00    +0.000 A 
ENDROOT
BRANCH   3  17
ATOM     17  N   UNL     1     -60.711 -45.037 -61.110  0.00  0.00    +0.000 N 
ATOM     18  H   UNL     1     -60.761 -46.055 -61.265  0.00  0.00    +0.000 HD
BRANCH  17  19
ATOM     19  C   UNL     1     -59.667 -44.324 -61.827  0.00  0.00    +0.000 C 
ATOM     20  C   UNL     1     -58.565 -43.572 -62.581  0.00  0.00    +0.000 C 
BRANCH  20  21
ATOM     21  N   UNL     1     -57.520 -42.851 -63.288  0.00  0.00    +0.000 N 
BRANCH  21  22
ATOM     22  C   UNL     1     -57.654 -43.169 -64.698  0.00  0.00    +0.000 C 
ATOM     23  C   UNL     1     -57.806 -43.494 -66.186  0.00  0.00    +0.000 C 
ENDBRANCH  21  22
BRANCH  21  24
ATOM     24  C   UNL     1     -56.251 -43.409 -62.859  0.00  0.00    +0.000 C 
ATOM     25  C   UNL     1     -54.922 -44.008 -62.391  0.00  0.00    +0.000 C 
ENDBRANCH  21  24
ENDBRANCH  20  21
ENDBRANCH  17  19
ENDBRANCH   3  17
TORSDOF 5
ENDMDL
MODEL 2
REMARK VINA RESULT:      -5.1     36.568     39.995
REMARK  Name = LUCANTHONE.pdbqt.pdb
REMARK  5 active torsions:
REMARK  status: ('A' for Active; 'I' for Inactive)
REMARK    1  A    between atoms: C_3  and  N_17
REMARK    2  A    between atoms: N_17  and  C_19
REMARK    3  A    between atoms: C_20  and  N_21
REMARK    4  A    between atoms: N_21  and  C_22
REMARK    5  A    between atoms: N_21  and  C_24
REMARK                            x       y       z     vdW  Elec       q    Type
REMARK                         _______ _______ _______ _____ _____    ______ ____
ROOT
ATOM      1  S   UNL     1     -60.401 -52.797 -25.119  0.00  0.00    +0.000 S 
ATOM      2  O   UNL     1     -62.203 -55.734 -22.489  0.00  0.00    +0.000 OA
ATOM      3  C   UNL     1     -62.288 -53.136 -21.458  0.00  0.00    +0.000 A 
ATOM      4  C   UNL     1     -61.644 -53.456 -22.686  0.00  0.00    +0.000 A 
ATOM      5  C   UNL     1     -61.173 -52.437 -23.540  0.00  0.00    +0.000 A 
ATOM      6  C   UNL     1     -61.349 -51.092 -23.138  0.00  0.00    +0.000 A 
ATOM      7  C   UNL     1     -61.501 -54.895 -23.052  0.00  0.00    +0.000 A 
ATOM      8  C   UNL     1     -62.411 -51.789 -21.097  0.00  0.00    +0.000 A 
ATOM      9  C   UNL     1     -60.522 -55.356 -24.047  0.00  0.00    +0.000 A 
ATOM     10  C   UNL     1     -61.962 -50.778 -21.929  0.00  0.00    +0.000 A 
ATOM     11  C   UNL     1     -59.962 -54.496 -24.979  0.00  0.00    +0.000 A 
ATOM     12  C   UNL     1     -60.891 -49.906 -23.958  0.00  0.00    +0.000 C 
ATOM     13  C   UNL     1     -60.175 -56.711 -24.037  0.00  0.00    +0.000 A 
ATOM     14  C   UNL     1     -59.042 -55.004 -25.899  0.00  0.00    +0.000 A 
ATOM     15  C   UNL     1     -59.252 -57.207 -24.953  0.00  0.00    +0.000 A 
ATOM     16  C   UNL     1     -58.681 -56.350 -25.887  0.00  0.00    +0.000 A 
ENDROOT
BRANCH   3  17
ATOM     17  N   UNL     1     -62.658 -54.138 -20.523  0.00  0.00    +0.000 N 
ATOM     18  H   UNL     1     -62.605 -55.079 -20.942  0.00  0.00    +0.000 HD
BRANCH  17  19
ATOM     19  C   UNL     1     -63.765 -53.895 -19.614  0.00  0.00    +0.000 C 
ATOM     20  C   UNL     1     -64.933 -53.641 -18.655  0.00  0.00    +0.000 C 
BRANCH  20  21
ATOM     21  N   UNL     1     -66.048 -53.407 -17.752  0.00  0.00    +0.000 N 
BRANCH  21  22
ATOM     22  C   UNL     1     -66.558 -52.077 -18.033  0.00  0.00    +0.000 C 
ATOM     23  C   UNL     1     -67.110 -50.680 -18.332  0.00  0.00    +0.000 C 
ENDBRANCH  21  22
BRANCH  21  24
ATOM     24  C   UNL     1     -65.506 -53.364 -16.407  0.00  0.00    +0.000 C 
ATOM     25  C   UNL     1     -64.932 -53.298 -14.988  0.00  0.00    +0.000 C 
ENDBRANCH  21  24
ENDBRANCH  20  21
ENDBRANCH  17  19
ENDBRANCH   3  17
TORSDOF 5
ENDMDL
MODEL 3
REMARK VINA RESULT:      -5.0      4.497      9.447
REMARK  Name = LUCANTHONE.pdbqt.pdb
REMARK  5 active torsions:
REMARK  status: ('A' for Active; 'I' for Inactive)
REMARK    1  A    between atoms: C_3  and  N_17
REMARK    2  A    between atoms: N_17  and  C_19
REMARK    3  A    between atoms: C_20  and  N_21
REMARK    4  A    between atoms: N_21  and  C_22
REMARK    5  A    between atoms: N_21  and  C_24
REMARK                            x       y       z     vdW  Elec       q    Type
REMARK                         _______ _______ _______ _____ _____    ______ ____
ROOT
ATOM      1  S   UNL     1     -65.264 -47.412 -60.313  0.00  0.00    +0.000 S 
ATOM      2  O   UNL     1     -63.236 -46.733 -56.541  0.00  0.00    +0.000 OA
ATOM      3  C   UNL     1     -65.977 -46.187 -56.430  0.00  0.00    +0.000 A 
ATOM      4  C   UNL     1     -65.316 -46.571 -57.631  0.00  0.00    +0.000 A 
ATOM      5  C   UNL     1     -66.054 -46.875 -58.794  0.00  0.00    +0.000 A 
ATOM      6  C   UNL     1     -67.465 -46.778 -58.736  0.00  0.00    +0.000 A 
ATOM      7  C   UNL     1     -63.827 -46.662 -57.617  0.00  0.00    +0.000 A 
ATOM      8  C   UNL     1     -67.372 -46.080 -56.437  0.00  0.00    +0.000 A 
ATOM      9  C   UNL     1     -63.031 -46.639 -58.852  0.00  0.00    +0.000 A 
ATOM     10  C   UNL     1     -68.110 -46.385 -57.568  0.00  0.00    +0.000 A 
ATOM     11  C   UNL     1     -63.586 -46.927 -60.090  0.00  0.00    +0.000 A 
ATOM     12  C   UNL     1     -68.373 -47.076 -59.909  0.00  0.00    +0.000 C 
ATOM     13  C   UNL     1     -61.672 -46.325 -58.743  0.00  0.00    +0.000 A 
ATOM     14  C   UNL     1     -62.768 -46.891 -61.222  0.00  0.00    +0.000 A 
ATOM     15  C   UNL     1     -60.866 -46.285 -59.877  0.00  0.00    +0.000 A 
ATOM     16  C   UNL     1     -61.417 -46.566 -61.122  0.00  0.00    +0.000 A 
ENDROOT
BRANCH   3  17
ATOM     17  N   UNL     1     -65.257 -45.754 -55.285  0.00  0.00    +0.000 N 
ATOM     18  H   UNL     1     -64.372 -45.297 -55.550  0.00  0.00    +0.000 HD
BRANCH  17  19
ATOM     19  C   UNL     1     -65.221 -46.597 -54.102  0.00  0.00    +0.000 C 
ATOM     20  C   UNL     1     -65.184 -47.486 -52.855  0.00  0.00    +0.000 C 
BRANCH  20  21
ATOM     21  N   UNL     1     -65.161 -48.332 -51.673  0.00  0.00    +0.000 N 
BRANCH  21  22
ATOM     22  C   UNL     1     -64.944 -49.695 -52.122  0.00  0.00    +0.000 C 
ATOM     23  C   UNL     1     -64.729 -51.134 -52.601  0.00  0.00    +0.000 C 
ENDBRANCH  21  22
BRANCH  21  24
ATOM     24  C   UNL     1     -66.491 -48.297 -51.096  0.00  0.00    +0.000 C 
ATOM     25  C   UNL     1     -67.905 -48.261 -50.506  0.00  0.00    +0.000 C 
ENDBRANCH  21  24
ENDBRANCH  20  21
ENDBRANCH  17  19
ENDBRANCH   3  17
TORSDOF 5
ENDMDL
MODEL 4
REMARK VINA RESULT:      -4.9     12.992     15.126
REMARK  Name = LUCANTHONE.pdbqt.pdb
REMARK  5 active torsions:
REMARK  status: ('A' for Active; 'I' for Inactive)
REMARK    1  A    between atoms: C_3  and  N_17
REMARK    2  A    between atoms: N_17  and  C_19
REMARK    3  A    between atoms: C_20  and  N_21
REMARK    4  A    between atoms: N_21  and  C_22
REMARK    5  A    between atoms: N_21  and  C_24
REMARK                            x       y       z     vdW  Elec       q    Type
REMARK                         _______ _______ _______ _____ _____    ______ ____
ROOT
ATOM      1  S   UNL     1     -55.604 -58.809 -65.790  0.00  0.00    +0.000 S 
ATOM      2  O   UNL     1     -52.430 -55.893 -66.255  0.00  0.00    +0.000 OA
ATOM      3  C   UNL     1     -53.650 -55.799 -63.740  0.00  0.00    +0.000 A 
ATOM      4  C   UNL     1     -54.091 -56.668 -64.778  0.00  0.00    +0.000 A 
ATOM      5  C   UNL     1     -55.058 -57.662 -64.523  0.00  0.00    +0.000 A 
ATOM      6  C   UNL     1     -55.583 -57.766 -63.213  0.00  0.00    +0.000 A 
ATOM      7  C   UNL     1     -53.488 -56.508 -66.133  0.00  0.00    +0.000 A 
ATOM      8  C   UNL     1     -54.223 -55.927 -62.470  0.00  0.00    +0.000 A 
ATOM      9  C   UNL     1     -54.132 -57.038 -67.343  0.00  0.00    +0.000 A 
ATOM     10  C   UNL     1     -55.166 -56.905 -62.202  0.00  0.00    +0.000 A 
ATOM     11  C   UNL     1     -55.097 -58.033 -67.286  0.00  0.00    +0.000 A 
ATOM     12  C   UNL     1     -56.623 -58.787 -62.806  0.00  0.00    +0.000 C 
ATOM     13  C   UNL     1     -53.731 -56.513 -68.576  0.00  0.00    +0.000 A 
ATOM     14  C   UNL     1     -55.663 -58.493 -68.478  0.00  0.00    +0.000 A 
ATOM     15  C   UNL     1     -54.305 -56.972 -69.757  0.00  0.00    +0.000 A 
ATOM     16  C   UNL     1     -55.278 -57.965 -69.708  0.00  0.00    +0.000 A 
ENDROOT
BRANCH   3  17
ATOM     17  N   UNL     1     -52.775 -54.711 -63.996  0.00  0.00    +0.000 N 
ATOM     18  H   UNL     1     -52.260 -54.843 -64.880  0.00  0.00    +0.000 HD
BRANCH  17  19
ATOM     19  C   UNL     1     -52.033 -54.115 -62.898  0.00  0.00    +0.000 C 
ATOM     20  C   UNL     1     -51.249 -53.487 -61.741  0.00  0.00    +0.000 C 
BRANCH  20  21
ATOM     21  N   UNL     1     -50.496 -52.897 -60.647  0.00  0.00    +0.000 N 
BRANCH  21  22
ATOM     22  C   UNL     1     -51.448 -52.537 -59.612  0.00  0.00    +0.000 C 
ATOM     23  C   UNL     1     -52.456 -52.172 -58.519  0.00  0.00    +0.000 C 
ENDBRANCH  21  22
BRANCH  21  24
ATOM     24  C   UNL     1     -49.932 -51.654 -61.137  0.00  0.00    +0.000 C 
ATOM     25  C   UNL     1     -49.327 -50.351 -61.669  0.00  0.00    +0.000 C 
ENDBRANCH  21  24
ENDBRANCH  20  21
ENDBRANCH  17  19
ENDBRANCH   3  17
TORSDOF 5
ENDMDL
MODEL 5
REMARK VINA RESULT:      -4.8     31.948     35.717
REMARK  Name = LUCANTHONE.pdbqt.pdb
REMARK  5 active torsions:
REMARK  status: ('A' for Active; 'I' for Inactive)
REMARK    1  A    between atoms: C_3  and  N_17
REMARK    2  A    between atoms: N_17  and  C_19
REMARK    3  A    between atoms: C_20  and  N_21
REMARK    4  A    between atoms: N_21  and  C_22
REMARK    5  A    between atoms: N_21  and  C_24
REMARK                            x       y       z     vdW  Elec       q    Type
REMARK                         _______ _______ _______ _____ _____    ______ ____
ROOT
ATOM      1  S   UNL     1     -69.947 -56.363 -32.599  0.00  0.00    +0.000 S 
ATOM      2  O   UNL     1     -71.996 -59.782 -30.894  0.00  0.00    +0.000 OA
ATOM      3  C   UNL     1     -71.575 -57.721 -29.052  0.00  0.00    +0.000 A 
ATOM      4  C   UNL     1     -71.089 -57.669 -30.389  0.00  0.00    +0.000 A 
ATOM      5  C   UNL     1     -70.525 -56.484 -30.905  0.00  0.00    +0.000 A 
ATOM      6  C   UNL     1     -70.447 -55.354 -30.057  0.00  0.00    +0.000 A 
ATOM      7  C   UNL     1     -71.212 -58.895 -31.229  0.00  0.00    +0.000 A 
ATOM      8  C   UNL     1     -71.448 -56.582 -28.248  0.00  0.00    +0.000 A 
ATOM      9  C   UNL     1     -70.403 -59.098 -32.439  0.00  0.00    +0.000 A 
ATOM     10  C   UNL     1     -70.905 -55.409 -28.744  0.00  0.00    +0.000 A 
ATOM     11  C   UNL     1     -69.783 -58.044 -33.094  0.00  0.00    +0.000 A 
ATOM     12  C   UNL     1     -69.866 -54.024 -30.485  0.00  0.00    +0.000 C 
ATOM     13  C   UNL     1     -70.282 -60.403 -32.929  0.00  0.00    +0.000 A 
ATOM     14  C   UNL     1     -69.033 -58.311 -34.242  0.00  0.00    +0.000 A 
ATOM     15  C   UNL     1     -69.527 -60.660 -34.069  0.00  0.00    +0.000 A 
ATOM     16  C   UNL     1     -68.897 -59.610 -34.727  0.00  0.00    +0.000 A 
ENDROOT
BRANCH   3  17
ATOM     17  N   UNL     1     -72.030 -58.931 -28.466  0.00  0.00    +0.000 N 
ATOM     18  H   UNL     1     -72.899 -59.260 -28.914  0.00  0.00    +0.000 HD
BRANCH  17  19
ATOM     19  C   UNL     1     -71.935 -59.111 -27.028  0.00  0.00    +0.000 C 
ATOM     20  C   UNL     1     -71.834 -59.302 -25.511  0.00  0.00    +0.000 C 
BRANCH  20  21
ATOM     21  N   UNL     1     -71.741 -59.495 -24.073  0.00  0.00    +0.000 N 
BRANCH  21  22
ATOM     22  C   UNL     1     -72.443 -60.725 -23.756  0.00  0.00    +0.000 C 
ATOM     23  C   UNL     1     -73.173 -62.028 -23.414  0.00  0.00    +0.000 C 
ENDBRANCH  21  22
BRANCH  21  24
ATOM     24  C   UNL     1     -72.491 -58.421 -23.449  0.00  0.00    +0.000 C 
ATOM     25  C   UNL     1     -73.297 -57.301 -22.784  0.00  0.00    +0.000 C 
ENDBRANCH  21  24
ENDBRANCH  20  21
ENDBRANCH  17  19
ENDBRANCH   3  17
TORSDOF 5
ENDMDL
MODEL 6
REMARK VINA RESULT:      -4.8     23.672     26.336
REMARK  Name = LUCANTHONE.pdbqt.pdb
REMARK  5 active torsions:
REMARK  status: ('A' for Active; 'I' for Inactive)
REMARK    1  A    between atoms: C_3  and  N_17
REMARK    2  A    between atoms: N_17  and  C_19
REMARK    3  A    between atoms: C_20  and  N_21
REMARK    4  A    between atoms: N_21  and  C_22
REMARK    5  A    between atoms: N_21  and  C_24
REMARK                            x       y       z     vdW  Elec       q    Type
REMARK                         _______ _______ _______ _____ _____    ______ ____
ROOT
ATOM      1  S   UNL     1     -51.945 -66.674 -73.607  0.00  0.00    +0.000 S 
ATOM      2  O   UNL     1     -54.808 -63.501 -72.875  0.00  0.00    +0.000 OA
ATOM      3  C   UNL     1     -55.909 -66.059 -72.611  0.00  0.00    +0.000 A 
ATOM      4  C   UNL     1     -54.564 -65.838 -73.022  0.00  0.00    +0.000 A 
ATOM      5  C   UNL     1     -53.661 -66.915 -73.140  0.00  0.00    +0.000 A 
ATOM      6  C   UNL     1     -54.130 -68.218 -72.849  0.00  0.00    +0.000 A 
ATOM      7  C   UNL     1     -54.135 -64.437 -73.305  0.00  0.00    +0.000 A 
ATOM      8  C   UNL     1     -56.327 -67.371 -72.362  0.00  0.00    +0.000 A 
ATOM      9  C   UNL     1     -52.944 -64.131 -74.109  0.00  0.00    +0.000 A 
ATOM     10  C   UNL     1     -55.449 -68.437 -72.465  0.00  0.00    +0.000 A 
ATOM     11  C   UNL     1     -51.940 -65.065 -74.321  0.00  0.00    +0.000 A 
ATOM     12  C   UNL     1     -53.266 -69.457 -72.935  0.00  0.00    +0.000 C 
ATOM     13  C   UNL     1     -52.841 -62.847 -74.655  0.00  0.00    +0.000 A 
ATOM     14  C   UNL     1     -50.834 -64.703 -75.092  0.00  0.00    +0.000 A 
ATOM     15  C   UNL     1     -51.738 -62.498 -75.428  0.00  0.00    +0.000 A 
ATOM     16  C   UNL     1     -50.731 -63.430 -75.650  0.00  0.00    +0.000 A 
ENDROOT
BRANCH   3  17
ATOM     17  N   UNL     1     -56.871 -65.015 -72.606  0.00  0.00    +0.000 N 
ATOM     18  H   UNL     1     -56.539 -64.203 -72.063  0.00  0.00    +0.000 HD
BRANCH  17  19
ATOM     19  C   UNL     1     -58.281 -65.342 -72.484  0.00  0.00    +0.000 C 
ATOM     20  C   UNL     1     -59.769 -65.686 -72.354  0.00  0.00    +0.000 C 
BRANCH  20  21
ATOM     21  N   UNL     1     -61.177 -66.020 -72.222  0.00  0.00    +0.000 N 
BRANCH  21  22
ATOM     22  C   UNL     1     -61.794 -64.981 -71.419  0.00  0.00    +0.000 C 
ATOM     23  C   UNL     1     -62.449 -63.895 -70.561  0.00  0.00    +0.000 C 
ENDBRANCH  21  22
BRANCH  21  24
ATOM     24  C   UNL     1     -61.255 -67.242 -71.444  0.00  0.00    +0.000 C 
ATOM     25  C   UNL     1     -61.352 -68.523 -70.610  0.00  0.00    +0.000 C 
ENDBRANCH  21  24
ENDBRANCH  20  21
ENDBRANCH  17  19
ENDBRANCH   3  17
TORSDOF 5
ENDMDL
MODEL 7
REMARK VINA RESULT:      -4.8     25.282     28.630
REMARK  Name = LUCANTHONE.pdbqt.pdb
REMARK  5 active torsions:
REMARK  status: ('A' for Active; 'I' for Inactive)
REMARK    1  A    between atoms: C_3  and  N_17
REMARK    2  A    between atoms: N_17  and  C_19
REMARK    3  A    between atoms: C_20  and  N_21
REMARK    4  A    between atoms: N_21  and  C_22
REMARK    5  A    between atoms: N_21  and  C_24
REMARK                            x       y       z     vdW  Elec       q    Type
REMARK                         _______ _______ _______ _____ _____    ______ ____
ROOT
ATOM      1  S   UNL     1     -69.246 -57.349 -31.867  0.00  0.00    +0.000 S 
ATOM      2  O   UNL     1     -72.254 -55.307 -34.230  0.00  0.00    +0.000 OA
ATOM      3  C   UNL     1     -70.242 -56.476 -35.782  0.00  0.00    +0.000 A 
ATOM      4  C   UNL     1     -70.223 -56.491 -34.358  0.00  0.00    +0.000 A 
ATOM      5  C   UNL     1     -69.273 -57.263 -33.659  0.00  0.00    +0.000 A 
ATOM      6  C   UNL     1     -68.335 -58.013 -34.409  0.00  0.00    +0.000 A 
ATOM      7  C   UNL     1     -71.247 -55.684 -33.632  0.00  0.00    +0.000 A 
ATOM      8  C   UNL     1     -69.274 -57.213 -36.473  0.00  0.00    +0.000 A 
ATOM      9  C   UNL     1     -71.081 -55.295 -32.226  0.00  0.00    +0.000 A 
ATOM     10  C   UNL     1     -68.341 -57.984 -35.800  0.00  0.00    +0.000 A 
ATOM     11  C   UNL     1     -70.200 -55.952 -31.379  0.00  0.00    +0.000 A 
ATOM     12  C   UNL     1     -67.265 -58.881 -33.784  0.00  0.00    +0.000 C 
ATOM     13  C   UNL     1     -71.857 -54.233 -31.749  0.00  0.00    +0.000 A 
ATOM     14  C   UNL     1     -70.098 -55.531 -30.051  0.00  0.00    +0.000 A 
ATOM     15  C   UNL     1     -71.744 -53.815 -30.427  0.00  0.00    +0.000 A 
ATOM     16  C   UNL     1     -70.859 -54.466 -29.574  0.00  0.00    +0.000 A 
ENDROOT
BRANCH   3  17
ATOM     17  N   UNL     1     -71.102 -55.612 -36.510  0.00  0.00    +0.000 N 
ATOM     18  H   UNL     1     -72.091 -55.872 -36.379  0.00  0.00    +0.000 HD
BRANCH  17  19
ATOM     19  C   UNL     1     -70.718 -55.176 -37.842  0.00  0.00    +0.000 C 
ATOM     20  C   UNL     1     -70.315 -54.715 -39.246  0.00  0.00    +0.000 C 
BRANCH  20  21
ATOM     21  N   UNL     1     -69.941 -54.286 -40.584  0.00  0.00    +0.000 N 
BRANCH  21  22
ATOM     22  C   UNL     1     -68.502 -54.093 -40.588  0.00  0.00    +0.000 C 
ATOM     23  C   UNL     1     -66.986 -53.874 -40.589  0.00  0.00    +0.000 C 
ENDBRANCH  21  22
BRANCH  21  24
ATOM     24  C   UNL     1     -70.531 -52.978 -40.794  0.00  0.00    +0.000 C 
ATOM     25  C   UNL     1     -71.138 -51.588 -41.009  0.00  0.00    +0.000 C 
ENDBRANCH  21  24
ENDBRANCH  20  21
ENDBRANCH  17  19
ENDBRANCH   3  17
TORSDOF 5
ENDMDL
MODEL 8
REMARK VINA RESULT:      -4.8     18.711     20.210
REMARK  Name = LUCANTHONE.pdbqt.pdb
REMARK  5 active torsions:
REMARK  status: ('A' for Active; 'I' for Inactive)
REMARK    1  A    between atoms: C_3  and  N_17
REMARK    2  A    between atoms: N_17  and  C_19
REMARK    3  A    between atoms: C_20  and  N_21
REMARK    4  A    between atoms: N_21  and  C_22
REMARK    5  A    between atoms: N_21  and  C_24
REMARK                            x       y       z     vdW  Elec       q    Type
REMARK                         _______ _______ _______ _____ _____    ______ ____
ROOT
ATOM      1  S   UNL     1     -56.382 -58.693 -67.018  0.00  0.00    +0.000 S 
ATOM      2  O   UNL     1     -54.145 -62.348 -67.678  0.00  0.00    +0.000 OA
ATOM      3  C   UNL     1     -53.325 -60.243 -69.328  0.00  0.00    +0.000 A 
ATOM      4  C   UNL     1     -54.420 -60.132 -68.425  0.00  0.00    +0.000 A 
ATOM      5  C   UNL     1     -55.033 -58.884 -68.186  0.00  0.00    +0.000 A 
ATOM      6  C   UNL     1     -54.536 -57.751 -68.873  0.00  0.00    +0.000 A 
ATOM      7  C   UNL     1     -54.885 -61.366 -67.728  0.00  0.00    +0.000 A 
ATOM      8  C   UNL     1     -52.892 -59.095 -70.001  0.00  0.00    +0.000 A 
ATOM      9  C   UNL     1     -56.218 -61.464 -67.117  0.00  0.00    +0.000 A 
ATOM     10  C   UNL     1     -53.478 -57.862 -69.769  0.00  0.00    +0.000 A 
ATOM     11  C   UNL     1     -56.964 -60.339 -66.797  0.00  0.00    +0.000 A 
ATOM     12  C   UNL     1     -55.102 -56.358 -68.708  0.00  0.00    +0.000 C 
ATOM     13  C   UNL     1     -56.719 -62.743 -66.851  0.00  0.00    +0.000 A 
ATOM     14  C   UNL     1     -58.222 -60.507 -66.213  0.00  0.00    +0.000 A 
ATOM     15  C   UNL     1     -57.976 -62.901 -66.276  0.00  0.00    +0.000 A 
ATOM     16  C   UNL     1     -58.732 -61.779 -65.958  0.00  0.00    +0.000 A 
ENDROOT
BRANCH   3  17
ATOM     17  N   UNL     1     -52.772 -61.501 -69.683  0.00  0.00    +0.000 N 
ATOM     18  H   UNL     1     -51.775 -61.558 -69.426  0.00  0.00    +0.000 HD
BRANCH  17  19
ATOM     19  C   UNL     1     -53.153 -62.121 -70.941  0.00  0.00    +0.000 C 
ATOM     20  C   UNL     1     -53.555 -62.776 -72.266  0.00  0.00    +0.000 C 
BRANCH  20  21
ATOM     21  N   UNL     1     -53.935 -63.408 -73.519  0.00  0.00    +0.000 N 
BRANCH  21  22
ATOM     22  C   UNL     1     -53.800 -64.841 -73.338  0.00  0.00    +0.000 C 
ATOM     23  C   UNL     1     -53.668 -66.353 -73.134  0.00  0.00    +0.000 C 
ENDBRANCH  21  22
BRANCH  21  24
ATOM     24  C   UNL     1     -52.945 -63.024 -74.508  0.00  0.00    +0.000 C 
ATOM     25  C   UNL     1     -51.912 -62.627 -75.567  0.00  0.00    +0.000 C 
ENDBRANCH  21  24
ENDBRANCH  20  21
ENDBRANCH  17  19
ENDBRANCH   3  17
TORSDOF 5
ENDMDL
MODEL 9
REMARK VINA RESULT:      -4.8      2.795      4.371
REMARK  Name = LUCANTHONE.pdbqt.pdb
REMARK  5 active torsions:
REMARK  status: ('A' for Active; 'I' for Inactive)
REMARK    1  A    between atoms: C_3  and  N_17
REMARK    2  A    between atoms: N_17  and  C_19
REMARK    3  A    between atoms: C_20  and  N_21
REMARK    4  A    between atoms: N_21  and  C_22
REMARK    5  A    between atoms: N_21  and  C_24
REMARK                            x       y       z     vdW  Elec       q    Type
REMARK                         _______ _______ _______ _____ _____    ______ ____
ROOT
ATOM      1  S   UNL     1     -66.125 -47.116 -57.290  0.00  0.00    +0.000 S 
ATOM      2  O   UNL     1     -62.764 -44.845 -55.759  0.00  0.00    +0.000 OA
ATOM      3  C   UNL     1     -62.322 -45.871 -58.323  0.00  0.00    +0.000 A 
ATOM      4  C   UNL     1     -63.504 -46.143 -57.578  0.00  0.00    +0.000 A 
ATOM      5  C   UNL     1     -64.599 -46.799 -58.179  0.00  0.00    +0.000 A 
ATOM      6  C   UNL     1     -64.485 -47.187 -59.535  0.00  0.00    +0.000 A 
ATOM      7  C   UNL     1     -63.558 -45.697 -56.155  0.00  0.00    +0.000 A 
ATOM      8  C   UNL     1     -62.253 -46.302 -59.652  0.00  0.00    +0.000 A 
ATOM      9  C   UNL     1     -64.513 -46.264 -55.194  0.00  0.00    +0.000 A 
ATOM     10  C   UNL     1     -63.323 -46.939 -60.258  0.00  0.00    +0.000 A 
ATOM     11  C   UNL     1     -65.658 -46.933 -55.603  0.00  0.00    +0.000 A 
ATOM     12  C   UNL     1     -65.583 -47.897 -60.297  0.00  0.00    +0.000 C 
ATOM     13  C   UNL     1     -64.241 -46.099 -53.832  0.00  0.00    +0.000 A 
ATOM     14  C   UNL     1     -66.525 -47.441 -54.633  0.00  0.00    +0.000 A 
ATOM     15  C   UNL     1     -65.107 -46.615 -52.873  0.00  0.00    +0.000 A 
ATOM     16  C   UNL     1     -66.253 -47.292 -53.275  0.00  0.00    +0.000 A 
ENDROOT
BRANCH   3  17
ATOM     17  N   UNL     1     -61.161 -45.328 -57.712  0.00  0.00    +0.000 N 
ATOM     18  H   UNL     1     -61.287 -45.222 -56.694  0.00  0.00    +0.000 HD
BRANCH  17  19
ATOM     19  C   UNL     1     -60.426 -44.272 -58.386  0.00  0.00    +0.000 C 
ATOM     20  C   UNL     1     -59.650 -43.156 -59.096  0.00  0.00    +0.000 C 
BRANCH  20  21
ATOM     21  N   UNL     1     -58.924 -42.091 -59.767  0.00  0.00    +0.000 N 
BRANCH  21  22
ATOM     22  C   UNL     1     -58.852 -42.437 -61.174  0.00  0.00    +0.000 C 
ATOM     23  C   UNL     1     -58.767 -42.814 -62.656  0.00  0.00    +0.000 C 
ENDBRANCH  21  22
BRANCH  21  24
ATOM     24  C   UNL     1     -57.563 -42.121 -59.266  0.00  0.00    +0.000 C 
ATOM     25  C   UNL     1     -56.118 -42.150 -58.757  0.00  0.00    +0.000 C 
ENDBRANCH  21  24
ENDBRANCH  20  21
ENDBRANCH  17  19
ENDBRANCH   3  17
TORSDOF 5
ENDMDL
