MODEL 1
REMARK VINA RESULT:      -4.9      0.000      0.000
REMARK  Name = MeIQx.pdbqt.pdb
REMARK  0 active torsions:
REMARK  status: ('A' for Active; 'I' for Inactive)
REMARK                            x       y       z     vdW  Elec       q    Type
REMARK                         _______ _______ _______ _____ _____    ______ ____
ROOT
ATOM      1  N   UNL     1     -62.024 -46.364 -59.453  0.00  0.00    +0.000 N 
ATOM      2  N   UNL     1     -62.716 -46.091 -57.367  0.00  0.00    +0.000 NA
ATOM      3  N   UNL     1     -65.447 -46.737 -56.502  0.00  0.00    +0.000 NA
ATOM      4  N   UNL     1     -67.224 -47.750 -58.481  0.00  0.00    +0.000 NA
ATOM      5  C   UNL     1     -63.331 -46.772 -59.465  0.00  0.00    +0.000 A 
ATOM      6  C   UNL     1     -63.747 -46.592 -58.146  0.00  0.00    +0.000 A 
ATOM      7  C   UNL     1     -65.081 -46.925 -57.798  0.00  0.00    +0.000 A 
ATOM      8  C   UNL     1     -65.954 -47.428 -58.793  0.00  0.00    +0.000 A 
ATOM      9  C   UNL     1     -61.686 -45.955 -58.172  0.00  0.00    +0.000 A 
ATOM     10  C   UNL     1     -64.169 -47.268 -60.466  0.00  0.00    +0.000 A 
ATOM     11  C   UNL     1     -65.477 -47.584 -60.088  0.00  0.00    +0.000 A 
ATOM     12  C   UNL     1     -61.141 -46.398 -60.583  0.00  0.00    +0.000 C 
ATOM     13  C   UNL     1     -66.722 -47.064 -56.210  0.00  0.00    +0.000 A 
ATOM     14  C   UNL     1     -67.588 -47.559 -57.180  0.00  0.00    +0.000 A 
ATOM     15  C   UNL     1     -67.203 -46.888 -54.798  0.00  0.00    +0.000 C 
ATOM     16  N   UNL     1     -60.468 -45.488 -57.818  0.00  0.00    +0.000 N 
ATOM     17  H   UNL     1     -60.255 -45.405 -56.828  0.00  0.00    +0.000 HD
ATOM     18  H   UNL     1     -59.663 -45.613 -58.427  0.00  0.00    +0.000 HD
ENDROOT
TORSDOF 0
ENDMDL
MODEL 2
REMARK VINA RESULT:      -4.5     19.330     21.194
REMARK  Name = MeIQx.pdbqt.pdb
REMARK  0 active torsions:
REMARK  status: ('A' for Active; 'I' for Inactive)
REMARK                            x       y       z     vdW  Elec       q    Type
REMARK                         _______ _______ _______ _____ _____    ______ ____
ROOT
ATOM      1  N   UNL     1     -65.526 -60.975 -71.076  0.00  0.00    +0.000 N 
ATOM      2  N   UNL     1     -64.506 -61.650 -72.922  0.00  0.00    +0.000 NA
ATOM      3  N   UNL     1     -65.375 -60.833 -75.606  0.00  0.00    +0.000 NA
ATOM      4  N   UNL     1     -67.629 -59.102 -75.764  0.00  0.00    +0.000 NA
ATOM      5  C   UNL     1     -66.225 -60.384 -72.094  0.00  0.00    +0.000 A 
ATOM      6  C   UNL     1     -65.570 -60.820 -73.245  0.00  0.00    +0.000 A 
ATOM      7  C   UNL     1     -66.043 -60.386 -74.508  0.00  0.00    +0.000 A 
ATOM      8  C   UNL     1     -67.165 -59.525 -74.572  0.00  0.00    +0.000 A 
ATOM      9  C   UNL     1     -64.499 -61.735 -71.611  0.00  0.00    +0.000 A 
ATOM     10  C   UNL     1     -67.332 -59.533 -72.126  0.00  0.00    +0.000 A 
ATOM     11  C   UNL     1     -67.773 -59.126 -73.390  0.00  0.00    +0.000 A 
ATOM     12  C   UNL     1     -65.798 -60.795 -69.679  0.00  0.00    +0.000 C 
ATOM     13  C   UNL     1     -65.855 -60.399 -76.789  0.00  0.00    +0.000 A 
ATOM     14  C   UNL     1     -66.957 -59.553 -76.863  0.00  0.00    +0.000 A 
ATOM     15  C   UNL     1     -65.170 -60.846 -78.049  0.00  0.00    +0.000 C 
ATOM     16  N   UNL     1     -63.622 -62.455 -70.876  0.00  0.00    +0.000 N 
ATOM     17  H   UNL     1     -62.790 -62.814 -71.336  0.00  0.00    +0.000 HD
ATOM     18  H   UNL     1     -63.534 -62.306 -69.874  0.00  0.00    +0.000 HD
ENDROOT
TORSDOF 0
ENDMDL
MODEL 3
REMARK VINA RESULT:      -4.5     18.204     19.968
REMARK  Name = MeIQx.pdbqt.pdb
REMARK  0 active torsions:
REMARK  status: ('A' for Active; 'I' for Inactive)
REMARK                            x       y       z     vdW  Elec       q    Type
REMARK                         _______ _______ _______ _____ _____    ______ ____
ROOT
ATOM      1  N   UNL     1     -67.531 -59.344 -74.159  0.00  0.00    +0.000 N 
ATOM      2  N   UNL     1     -68.002 -59.355 -71.996  0.00  0.00    +0.000 NA
ATOM      3  N   UNL     1     -66.446 -60.895 -70.039  0.00  0.00    +0.000 NA
ATOM      4  N   UNL     1     -64.257 -62.415 -71.037  0.00  0.00    +0.000 NA
ATOM      5  C   UNL     1     -66.589 -60.168 -73.604  0.00  0.00    +0.000 A 
ATOM      6  C   UNL     1     -66.903 -60.162 -72.245  0.00  0.00    +0.000 A 
ATOM      7  C   UNL     1     -66.108 -60.929 -71.356  0.00  0.00    +0.000 A 
ATOM      8  C   UNL     1     -65.022 -61.681 -71.866  0.00  0.00    +0.000 A 
ATOM      9  C   UNL     1     -68.370 -58.873 -73.162  0.00  0.00    +0.000 A 
ATOM     10  C   UNL     1     -65.523 -60.897 -74.135  0.00  0.00    +0.000 A 
ATOM     11  C   UNL     1     -64.762 -61.643 -73.230  0.00  0.00    +0.000 A 
ATOM     12  C   UNL     1     -67.602 -58.996 -75.549  0.00  0.00    +0.000 C 
ATOM     13  C   UNL     1     -65.668 -61.638 -69.225  0.00  0.00    +0.000 A 
ATOM     14  C   UNL     1     -64.598 -62.380 -69.717  0.00  0.00    +0.000 A 
ATOM     15  C   UNL     1     -65.974 -61.651 -67.754  0.00  0.00    +0.000 C 
ATOM     16  N   UNL     1     -69.413 -58.039 -73.373  0.00  0.00    +0.000 N 
ATOM     17  H   UNL     1     -69.842 -57.593 -72.568  0.00  0.00    +0.000 HD
ATOM     18  H   UNL     1     -69.508 -57.536 -74.253  0.00  0.00    +0.000 HD
ENDROOT
TORSDOF 0
ENDMDL
MODEL 4
REMARK VINA RESULT:      -4.4      1.114      4.915
REMARK  Name = MeIQx.pdbqt.pdb
REMARK  0 active torsions:
REMARK  status: ('A' for Active; 'I' for Inactive)
REMARK                            x       y       z     vdW  Elec       q    Type
REMARK                         _______ _______ _______ _____ _____    ______ ____
ROOT
ATOM      1  N   UNL     1     -66.766 -47.376 -58.015  0.00  0.00    +0.000 N 
ATOM      2  N   UNL     1     -65.215 -46.158 -57.007  0.00  0.00    +0.000 NA
ATOM      3  N   UNL     1     -62.620 -45.555 -58.241  0.00  0.00    +0.000 NA
ATOM      4  N   UNL     1     -62.147 -46.612 -60.841  0.00  0.00    +0.000 NA
ATOM      5  C   UNL     1     -65.728 -47.330 -58.906  0.00  0.00    +0.000 A 
ATOM      6  C   UNL     1     -64.764 -46.562 -58.255  0.00  0.00    +0.000 A 
ATOM      7  C   UNL     1     -63.532 -46.309 -58.910  0.00  0.00    +0.000 A 
ATOM      8  C   UNL     1     -63.311 -46.842 -60.204  0.00  0.00    +0.000 A 
ATOM      9  C   UNL     1     -66.422 -46.662 -56.878  0.00  0.00    +0.000 A 
ATOM     10  C   UNL     1     -65.539 -47.866 -60.182  0.00  0.00    +0.000 A 
ATOM     11  C   UNL     1     -64.312 -47.598 -60.798  0.00  0.00    +0.000 A 
ATOM     12  C   UNL     1     -68.023 -48.027 -58.249  0.00  0.00    +0.000 C 
ATOM     13  C   UNL     1     -61.461 -45.337 -58.896  0.00  0.00    +0.000 A 
ATOM     14  C   UNL     1     -61.233 -45.856 -60.168  0.00  0.00    +0.000 A 
ATOM     15  C   UNL     1     -60.402 -44.509 -58.226  0.00  0.00    +0.000 C 
ATOM     16  N   UNL     1     -67.223 -46.513 -55.800  0.00  0.00    +0.000 N 
ATOM     17  H   UNL     1     -66.971 -45.815 -55.107  0.00  0.00    +0.000 HD
ATOM     18  H   UNL     1     -68.214 -46.738 -55.851  0.00  0.00    +0.000 HD
ENDROOT
TORSDOF 0
ENDMDL
MODEL 5
REMARK VINA RESULT:      -4.3      1.615      5.576
REMARK  Name = MeIQx.pdbqt.pdb
REMARK  0 active torsions:
REMARK  status: ('A' for Active; 'I' for Inactive)
REMARK                            x       y       z     vdW  Elec       q    Type
REMARK                         _______ _______ _______ _____ _____    ______ ____
ROOT
ATOM      1  N   UNL     1     -67.471 -46.082 -57.434  0.00  0.00    +0.000 N 
ATOM      2  N   UNL     1     -66.595 -46.280 -59.458  0.00  0.00    +0.000 NA
ATOM      3  N   UNL     1     -63.704 -46.489 -59.925  0.00  0.00    +0.000 NA
ATOM      4  N   UNL     1     -62.017 -46.427 -57.633  0.00  0.00    +0.000 NA
ATOM      5  C   UNL     1     -66.120 -46.148 -57.222  0.00  0.00    +0.000 A 
ATOM      6  C   UNL     1     -65.588 -46.271 -58.506  0.00  0.00    +0.000 A 
ATOM      7  C   UNL     1     -64.182 -46.368 -58.657  0.00  0.00    +0.000 A 
ATOM      8  C   UNL     1     -63.355 -46.336 -57.508  0.00  0.00    +0.000 A 
ATOM      9  C   UNL     1     -67.723 -46.160 -58.794  0.00  0.00    +0.000 A 
ATOM     10  C   UNL     1     -65.329 -46.116 -56.071  0.00  0.00    +0.000 A 
ATOM     11  C   UNL     1     -63.947 -46.212 -56.259  0.00  0.00    +0.000 A 
ATOM     12  C   UNL     1     -68.461 -45.989 -56.401  0.00  0.00    +0.000 C 
ATOM     13  C   UNL     1     -62.362 -46.578 -60.028  0.00  0.00    +0.000 A 
ATOM     14  C   UNL     1     -61.540 -46.547 -58.906  0.00  0.00    +0.000 A 
ATOM     15  C   UNL     1     -61.755 -46.717 -61.395  0.00  0.00    +0.000 C 
ATOM     16  N   UNL     1     -68.957 -46.118 -59.344  0.00  0.00    +0.000 N 
ATOM     17  H   UNL     1     -69.057 -46.382 -60.320  0.00  0.00    +0.000 HD
ATOM     18  H   UNL     1     -69.789 -46.244 -58.771  0.00  0.00    +0.000 HD
ENDROOT
TORSDOF 0
ENDMDL
MODEL 6
REMARK VINA RESULT:      -4.3     34.037     36.319
REMARK  Name = MeIQx.pdbqt.pdb
REMARK  0 active torsions:
REMARK  status: ('A' for Active; 'I' for Inactive)
REMARK                            x       y       z     vdW  Elec       q    Type
REMARK                         _______ _______ _______ _____ _____    ______ ____
ROOT
ATOM      1  N   UNL     1     -62.311 -52.808 -21.638  0.00  0.00    +0.000 N 
ATOM      2  N   UNL     1     -61.846 -54.950 -21.324  0.00  0.00    +0.000 NA
ATOM      3  N   UNL     1     -60.593 -56.622 -23.388  0.00  0.00    +0.000 NA
ATOM      4  N   UNL     1     -59.981 -55.370 -25.870  0.00  0.00    +0.000 NA
ATOM      5  C   UNL     1     -61.747 -53.216 -22.816  0.00  0.00    +0.000 A 
ATOM      6  C   UNL     1     -61.462 -54.564 -22.599  0.00  0.00    +0.000 A 
ATOM      7  C   UNL     1     -60.856 -55.311 -23.640  0.00  0.00    +0.000 A 
ATOM      8  C   UNL     1     -60.557 -54.675 -24.870  0.00  0.00    +0.000 A 
ATOM      9  C   UNL     1     -62.360 -53.880 -20.761  0.00  0.00    +0.000 A 
ATOM     10  C   UNL     1     -61.461 -52.562 -24.017  0.00  0.00    +0.000 A 
ATOM     11  C   UNL     1     -60.865 -53.331 -25.022  0.00  0.00    +0.000 A 
ATOM     12  C   UNL     1     -62.743 -51.470 -21.352  0.00  0.00    +0.000 C 
ATOM     13  C   UNL     1     -60.017 -57.299 -24.402  0.00  0.00    +0.000 A 
ATOM     14  C   UNL     1     -59.720 -56.684 -25.615  0.00  0.00    +0.000 A 
ATOM     15  C   UNL     1     -59.692 -58.752 -24.202  0.00  0.00    +0.000 C 
ATOM     16  N   UNL     1     -62.866 -53.818 -19.509  0.00  0.00    +0.000 N 
ATOM     17  H   UNL     1     -62.677 -54.590 -18.876  0.00  0.00    +0.000 HD
ATOM     18  H   UNL     1     -63.044 -52.922 -19.061  0.00  0.00    +0.000 HD
ENDROOT
TORSDOF 0
ENDMDL
MODEL 7
REMARK VINA RESULT:      -4.2     40.201     42.205
REMARK  Name = MeIQx.pdbqt.pdb
REMARK  0 active torsions:
REMARK  status: ('A' for Active; 'I' for Inactive)
REMARK                            x       y       z     vdW  Elec       q    Type
REMARK                         _______ _______ _______ _____ _____    ______ ____
ROOT
ATOM      1  N   UNL     1     -46.373 -58.600 -92.943  0.00  0.00    +0.000 N 
ATOM      2  N   UNL     1     -44.780 -59.578 -94.130  0.00  0.00    +0.000 NA
ATOM      3  N   UNL     1     -43.600 -62.161 -93.381  0.00  0.00    +0.000 NA
ATOM      4  N   UNL     1     -44.594 -63.400 -91.020  0.00  0.00    +0.000 NA
ATOM      5  C   UNL     1     -46.103 -59.762 -92.270  0.00  0.00    +0.000 A 
ATOM      6  C   UNL     1     -45.099 -60.361 -93.031  0.00  0.00    +0.000 A 
ATOM      7  C   UNL     1     -44.576 -61.609 -92.611  0.00  0.00    +0.000 A 
ATOM      8  C   UNL     1     -45.080 -62.215 -91.434  0.00  0.00    +0.000 A 
ATOM      9  C   UNL     1     -45.553 -58.518 -94.058  0.00  0.00    +0.000 A 
ATOM     10  C   UNL     1     -46.621 -60.336 -91.107  0.00  0.00    +0.000 A 
ATOM     11  C   UNL     1     -46.080 -61.566 -90.722  0.00  0.00    +0.000 A 
ATOM     12  C   UNL     1     -47.376 -57.646 -92.567  0.00  0.00    +0.000 C 
ATOM     13  C   UNL     1     -43.127 -63.347 -92.949  0.00  0.00    +0.000 A 
ATOM     14  C   UNL     1     -43.615 -63.950 -91.794  0.00  0.00    +0.000 A 
ATOM     15  C   UNL     1     -42.048 -64.024 -93.747  0.00  0.00    +0.000 C 
ATOM     16  N   UNL     1     -45.561 -57.491 -94.936  0.00  0.00    +0.000 N 
ATOM     17  H   UNL     1     -45.077 -57.611 -95.820  0.00  0.00    +0.000 HD
ATOM     18  H   UNL     1     -46.325 -56.818 -94.946  0.00  0.00    +0.000 HD
ENDROOT
TORSDOF 0
ENDMDL
MODEL 8
REMARK VINA RESULT:      -4.2     16.273     18.171
REMARK  Name = MeIQx.pdbqt.pdb
REMARK  0 active torsions:
REMARK  status: ('A' for Active; 'I' for Inactive)
REMARK                            x       y       z     vdW  Elec       q    Type
REMARK                         _______ _______ _______ _____ _____    ______ ____
ROOT
ATOM      1  N   UNL     1     -67.300 -60.483 -65.902  0.00  0.00    +0.000 N 
ATOM      2  N   UNL     1     -65.496 -60.819 -67.141  0.00  0.00    +0.000 NA
ATOM      3  N   UNL     1     -65.615 -61.186 -70.052  0.00  0.00    +0.000 NA
ATOM      4  N   UNL     1     -68.189 -61.093 -71.263  0.00  0.00    +0.000 NA
ATOM      5  C   UNL     1     -67.776 -60.603 -67.180  0.00  0.00    +0.000 A 
ATOM      6  C   UNL     1     -66.627 -60.815 -67.943  0.00  0.00    +0.000 A 
ATOM      7  C   UNL     1     -66.759 -60.983 -69.344  0.00  0.00    +0.000 A 
ATOM      8  C   UNL     1     -68.046 -60.935 -69.933  0.00  0.00    +0.000 A 
ATOM      9  C   UNL     1     -65.922 -60.623 -65.913  0.00  0.00    +0.000 A 
ATOM     10  C   UNL     1     -69.057 -60.548 -67.733  0.00  0.00    +0.000 A 
ATOM     11  C   UNL     1     -69.149 -60.721 -69.118  0.00  0.00    +0.000 A 
ATOM     12  C   UNL     1     -68.107 -60.213 -64.747  0.00  0.00    +0.000 C 
ATOM     13  C   UNL     1     -65.780 -61.342 -71.381  0.00  0.00    +0.000 A 
ATOM     14  C   UNL     1     -67.041 -61.297 -71.970  0.00  0.00    +0.000 A 
ATOM     15  C   UNL     1     -64.565 -61.567 -72.235  0.00  0.00    +0.000 C 
ATOM     16  N   UNL     1     -65.140 -60.562 -64.812  0.00  0.00    +0.000 N 
ATOM     17  H   UNL     1     -64.136 -60.474 -64.940  0.00  0.00    +0.000 HD
ATOM     18  H   UNL     1     -65.501 -60.193 -63.935  0.00  0.00    +0.000 HD
ENDROOT
TORSDOF 0
ENDMDL
MODEL 9
REMARK VINA RESULT:      -4.2     29.134     32.131
REMARK  Name = MeIQx.pdbqt.pdb
REMARK  0 active torsions:
REMARK  status: ('A' for Active; 'I' for Inactive)
REMARK                            x       y       z     vdW  Elec       q    Type
REMARK                         _______ _______ _______ _____ _____    ______ ____
ROOT
ATOM      1  N   UNL     1     -70.276 -56.485 -30.962  0.00  0.00    +0.000 N 
ATOM      2  N   UNL     1     -70.703 -55.721 -28.928  0.00  0.00    +0.000 NA
ATOM      3  N   UNL     1     -72.178 -57.280 -26.924  0.00  0.00    +0.000 NA
ATOM      4  N   UNL     1     -73.066 -59.870 -27.698  0.00  0.00    +0.000 NA
ATOM      5  C   UNL     1     -70.970 -57.495 -30.351  0.00  0.00    +0.000 A 
ATOM      6  C   UNL     1     -71.229 -56.995 -29.075  0.00  0.00    +0.000 A 
ATOM      7  C   UNL     1     -71.947 -57.803 -28.158  0.00  0.00    +0.000 A 
ATOM      8  C   UNL     1     -72.383 -59.090 -28.557  0.00  0.00    +0.000 A 
ATOM      9  C   UNL     1     -70.136 -55.428 -30.077  0.00  0.00    +0.000 A 
ATOM     10  C   UNL     1     -71.385 -58.760 -30.772  0.00  0.00    +0.000 A 
ATOM     11  C   UNL     1     -72.092 -59.528 -29.841  0.00  0.00    +0.000 A 
ATOM     12  C   UNL     1     -69.745 -56.540 -32.294  0.00  0.00    +0.000 C 
ATOM     13  C   UNL     1     -72.864 -58.077 -26.079  0.00  0.00    +0.000 A 
ATOM     14  C   UNL     1     -73.297 -59.343 -26.461  0.00  0.00    +0.000 A 
ATOM     15  C   UNL     1     -73.157 -57.573 -24.694  0.00  0.00    +0.000 C 
ATOM     16  N   UNL     1     -69.503 -54.269 -30.367  0.00  0.00    +0.000 N 
ATOM     17  H   UNL     1     -69.276 -53.641 -29.602  0.00  0.00    +0.000 HD
ATOM     18  H   UNL     1     -68.904 -54.192 -31.186  0.00  0.00    +0.000 HD
ENDROOT
TORSDOF 0
ENDMDL
