MODEL 1
REMARK VINA RESULT:      -0.9      0.000      0.000
REMARK  Name = MERCURY.pdbqt.pdb
REMARK  0 active torsions:
REMARK  status: ('A' for Active; 'I' for Inactive)
REMARK                            x       y       z     vdW  Elec       q    Type
REMARK                         _______ _______ _______ _____ _____    ______ ____
ROOT
ATOM      1 HG   UNL     1     -73.991 -59.600  -8.882  0.00  0.00    +0.000 Hg
ENDROOT
TORSDOF 0
ENDMDL
MODEL 2
REMARK VINA RESULT:      -0.9     31.823     31.823
REMARK  Name = MERCURY.pdbqt.pdb
REMARK  0 active torsions:
REMARK  status: ('A' for Active; 'I' for Inactive)
REMARK                            x       y       z     vdW  Elec       q    Type
REMARK                         _______ _______ _______ _____ _____    ______ ____
ROOT
ATOM      1 HG   UNL     1     -61.048 -55.994 -37.730  0.00  0.00    +0.000 Hg
ENDROOT
TORSDOF 0
ENDMDL
MODEL 3
REMARK VINA RESULT:      -0.9     68.226     68.226
REMARK  Name = MERCURY.pdbqt.pdb
REMARK  0 active torsions:
REMARK  status: ('A' for Active; 'I' for Inactive)
REMARK                            x       y       z     vdW  Elec       q    Type
REMARK                         _______ _______ _______ _____ _____    ______ ____
ROOT
ATOM      1 HG   UNL     1     -62.856 -51.025 -75.645  0.00  0.00    +0.000 Hg
ENDROOT
TORSDOF 0
ENDMDL
MODEL 4
REMARK VINA RESULT:      -0.9     76.058     76.058
REMARK  Name = MERCURY.pdbqt.pdb
REMARK  0 active torsions:
REMARK  status: ('A' for Active; 'I' for Inactive)
REMARK                            x       y       z     vdW  Elec       q    Type
REMARK                         _______ _______ _______ _____ _____    ______ ____
ROOT
ATOM      1 HG   UNL     1     -57.249 -60.660 -83.067  0.00  0.00    +0.000 Hg
ENDROOT
TORSDOF 0
ENDMDL
MODEL 5
REMARK VINA RESULT:      -0.9     66.246     66.246
REMARK  Name = MERCURY.pdbqt.pdb
REMARK  0 active torsions:
REMARK  status: ('A' for Active; 'I' for Inactive)
REMARK                            x       y       z     vdW  Elec       q    Type
REMARK                         _______ _______ _______ _____ _____    ______ ____
ROOT
ATOM      1 HG   UNL     1     -63.460 -51.627 -73.798  0.00  0.00    +0.000 Hg
ENDROOT
TORSDOF 0
ENDMDL
MODEL 6
REMARK VINA RESULT:      -0.8     88.964     88.964
REMARK  Name = MERCURY.pdbqt.pdb
REMARK  0 active torsions:
REMARK  status: ('A' for Active; 'I' for Inactive)
REMARK                            x       y       z     vdW  Elec       q    Type
REMARK                         _______ _______ _______ _____ _____    ______ ____
ROOT
ATOM      1 HG   UNL     1     -49.957 -69.894 -93.918  0.00  0.00    +0.000 Hg
ENDROOT
TORSDOF 0
ENDMDL
MODEL 7
REMARK VINA RESULT:      -0.8     36.291     36.291
REMARK  Name = MERCURY.pdbqt.pdb
REMARK  0 active torsions:
REMARK  status: ('A' for Active; 'I' for Inactive)
REMARK                            x       y       z     vdW  Elec       q    Type
REMARK                         _______ _______ _______ _____ _____    ______ ____
ROOT
ATOM      1 HG   UNL     1     -57.949 -51.350 -40.372  0.00  0.00    +0.000 Hg
ENDROOT
TORSDOF 0
ENDMDL
MODEL 8
REMARK VINA RESULT:      -0.8     58.397     58.397
REMARK  Name = MERCURY.pdbqt.pdb
REMARK  0 active torsions:
REMARK  status: ('A' for Active; 'I' for Inactive)
REMARK                            x       y       z     vdW  Elec       q    Type
REMARK                         _______ _______ _______ _____ _____    ______ ____
ROOT
ATOM      1 HG   UNL     1     -54.156 -51.911 -63.266  0.00  0.00    +0.000 Hg
ENDROOT
TORSDOF 0
ENDMDL
MODEL 9
REMARK VINA RESULT:      -0.8     56.459     56.459
REMARK  Name = MERCURY.pdbqt.pdb
REMARK  0 active torsions:
REMARK  status: ('A' for Active; 'I' for Inactive)
REMARK                            x       y       z     vdW  Elec       q    Type
REMARK                         _______ _______ _______ _____ _____    ______ ____
ROOT
ATOM      1 HG   UNL     1     -69.025 -57.151 -65.069  0.00  0.00    +0.000 Hg
ENDROOT
TORSDOF 0
ENDMDL
