MODEL 1
REMARK VINA RESULT:      -4.9      0.000      0.000
REMARK  Name = 
REMARK  21 active torsions:
REMARK  status: ('A' for Active; 'I' for Inactive)
REMARK    1  A    between atoms: O_3  and  C_27
REMARK    2  A    between atoms: O_3  and  C_28
REMARK    3  A    between atoms: N_6  and  CA_9
REMARK    4  A    between atoms: N_7  and  CA_15
REMARK    5  A    between atoms: N_8  and  CA_12
REMARK    6  A    between atoms: CA_9  and  CB_10
REMARK    7  A    between atoms: CA_9  and  C_16
REMARK    8  A    between atoms: CB_10  and  CG_11
REMARK    9  A    between atoms: CG_11  and  CD1_20
REMARK   10  A    between atoms: CG_11  and  CD2_21
REMARK   11  A    between atoms: CA_12  and  CB_13
REMARK   12  A    between atoms: CA_12  and  C_18
REMARK   13  A    between atoms: CB_13  and  CG_14
REMARK   14  A    between atoms: CG_14  and  CD1_22
REMARK   15  A    between atoms: CG_14  and  CD2_23
REMARK   16  A    between atoms: CA_15  and  CB_17
REMARK   17  A    between atoms: CA_15  and  C_26
REMARK   18  A    between atoms: CB_17  and  CG_19
REMARK   19  A    between atoms: CG_19  and  CD1_24
REMARK   20  A    between atoms: CG_19  and  CD2_25
REMARK   21  A    between atoms: C_28  and  C_29
REMARK                            x       y       z     vdW  Elec       q    Type
REMARK                         _______ _______ _______ _____ _____    ______ ____
ROOT
ATOM      1  O   UNL     1     -72.359 -58.510 -30.772  0.00  0.00    +0.000 OA
ATOM      2  N   UNL     1     -71.954 -56.944 -29.164  0.00  0.00    +0.000 N 
ATOM      3  C   UNL     1     -72.194 -58.240 -29.586  0.00  0.00    +0.000 C 
ATOM      4  H   UNL     1     -71.368 -56.883 -28.335  0.00  0.00    +0.000 HD
ENDROOT
BRANCH   2   5
ATOM      5  CA  UNL     1     -71.757 -55.886 -30.155  0.00  0.00    +0.000 C 
BRANCH   5   8
ATOM      6  O   UNL     1     -69.713 -55.024 -29.197  0.00  0.00    +0.000 OA
ATOM      7  N   UNL     1     -69.447 -55.977 -31.190  0.00  0.00    +0.000 N 
ATOM      8  C   UNL     1     -70.242 -55.609 -30.148  0.00  0.00    +0.000 C 
ATOM      9  H   UNL     1     -68.476 -55.747 -31.007  0.00  0.00    +0.000 HD
BRANCH   7  10
ATOM     10  CA  UNL     1     -69.700 -56.960 -32.244  0.00  0.00    +0.000 C 
BRANCH  10  12
ATOM     11  O   UNL     1     -67.394 -57.709 -32.482  0.00  0.00    +0.000 OA
ATOM     12  C   UNL     1     -68.573 -57.992 -32.281  0.00  0.00    +0.000 C 
ENDBRANCH  10  12
BRANCH  10  13
ATOM     13  CB  UNL     1     -69.974 -56.297 -33.603  0.00  0.00    +0.000 C 
BRANCH  13  14
ATOM     14  CG  UNL     1     -71.438 -55.934 -33.936  0.00  0.00    +0.000 C 
ATOM     15  CD1 UNL     1     -71.588 -55.104 -35.209  0.00  0.00    +0.000 C 
ATOM     16  CD2 UNL     1     -72.264 -57.219 -34.064  0.00  0.00    +0.000 C 
ENDBRANCH  13  14
ENDBRANCH  10  13
ENDBRANCH   7  10
ENDBRANCH   5   8
BRANCH   5  17
ATOM     17  CB  UNL     1     -72.530 -54.626 -29.738  0.00  0.00    +0.000 C 
BRANCH  17  18
ATOM     18  CG  UNL     1     -73.465 -54.058 -30.824  0.00  0.00    +0.000 C 
ATOM     19  CD1 UNL     1     -72.712 -53.226 -31.863  0.00  0.00    +0.000 C 
ATOM     20  CD2 UNL     1     -74.196 -55.206 -31.528  0.00  0.00    +0.000 C 
ENDBRANCH  17  18
ENDBRANCH   5  17
ENDBRANCH   2   5
BRANCH   3  21
ATOM     21  CA  UNL     1     -72.154 -59.305 -28.462  0.00  0.00    +0.000 C 
BRANCH  21  23
ATOM     22  O   UNL     1     -71.126 -60.612 -26.181  0.00  0.00    +0.000 OA
ATOM     23  N   UNL     1     -71.809 -58.666 -27.185  0.00  0.00    +0.000 N 
ATOM     24  C   ACE A   0     -71.350 -59.413 -26.133  0.00  0.00    +0.000 C 
ATOM     25  H   UNL     1     -72.282 -57.805 -26.950  0.00  0.00    +0.000 HD
BRANCH  24  26
ATOM     26  O   UNL     1     -71.271 -58.704 -24.981  0.00  0.00    +0.000 OA
BRANCH  26  27
ATOM     27  C   UNL     1     -72.266 -59.011 -23.997  0.00  0.00    +0.000 C 
BRANCH  27  28
ATOM     28  C   UNL     1     -73.005 -57.753 -23.611  0.00  0.00    +0.000 A 
ATOM     29  C   UNL     1     -73.572 -56.932 -24.596  0.00  0.00    +0.000 A 
ATOM     30  C   UNL     1     -73.084 -57.351 -22.270  0.00  0.00    +0.000 A 
ATOM     31  C   UNL     1     -74.228 -55.751 -24.244  0.00  0.00    +0.000 A 
ATOM     32  C   UNL     1     -73.740 -56.170 -21.919  0.00  0.00    +0.000 A 
ATOM     33  C   UNL     1     -74.312 -55.370 -22.906  0.00  0.00    +0.000 A 
ENDBRANCH  27  28
ENDBRANCH  26  27
ENDBRANCH  24  26
ENDBRANCH  21  23
BRANCH  21  34
ATOM     34  CB  UNL     1     -73.501 -60.037 -28.332  0.00  0.00    +0.000 C 
BRANCH  34  35
ATOM     35  CG  UNL     1     -73.515 -61.512 -28.785  0.00  0.00    +0.000 C 
ATOM     36  CD1 UNL     1     -72.152 -61.980 -29.296  0.00  0.00    +0.000 C 
ATOM     37  CD2 UNL     1     -73.957 -62.401 -27.618  0.00  0.00    +0.000 C 
ENDBRANCH  34  35
ENDBRANCH  21  34
ENDBRANCH   3  21
TORSDOF 15
ENDMDL
MODEL 2
REMARK VINA RESULT:      -4.8     24.630     30.272
REMARK  Name = 
REMARK  21 active torsions:
REMARK  status: ('A' for Active; 'I' for Inactive)
REMARK    1  A    between atoms: O_3  and  C_27
REMARK    2  A    between atoms: O_3  and  C_28
REMARK    3  A    between atoms: N_6  and  CA_9
REMARK    4  A    between atoms: N_7  and  CA_15
REMARK    5  A    between atoms: N_8  and  CA_12
REMARK    6  A    between atoms: CA_9  and  CB_10
REMARK    7  A    between atoms: CA_9  and  C_16
REMARK    8  A    between atoms: CB_10  and  CG_11
REMARK    9  A    between atoms: CG_11  and  CD1_20
REMARK   10  A    between atoms: CG_11  and  CD2_21
REMARK   11  A    between atoms: CA_12  and  CB_13
REMARK   12  A    between atoms: CA_12  and  C_18
REMARK   13  A    between atoms: CB_13  and  CG_14
REMARK   14  A    between atoms: CG_14  and  CD1_22
REMARK   15  A    between atoms: CG_14  and  CD2_23
REMARK   16  A    between atoms: CA_15  and  CB_17
REMARK   17  A    between atoms: CA_15  and  C_26
REMARK   18  A    between atoms: CB_17  and  CG_19
REMARK   19  A    between atoms: CG_19  and  CD1_24
REMARK   20  A    between atoms: CG_19  and  CD2_25
REMARK   21  A    between atoms: C_28  and  C_29
REMARK                            x       y       z     vdW  Elec       q    Type
REMARK                         _______ _______ _______ _____ _____    ______ ____
ROOT
ATOM      1  O   UNL     1     -67.361 -46.482 -54.015  0.00  0.00    +0.000 OA
ATOM      2  N   UNL     1     -65.854 -48.143 -54.431  0.00  0.00    +0.000 N 
ATOM      3  C   UNL     1     -66.640 -47.071 -54.815  0.00  0.00    +0.000 C 
ATOM      4  H   UNL     1     -64.988 -48.228 -54.959  0.00  0.00    +0.000 HD
ENDROOT
BRANCH   2   5
ATOM      5  CA  UNL     1     -65.769 -48.506 -53.016  0.00  0.00    +0.000 C 
BRANCH   5   8
ATOM      6  O   UNL     1     -63.854 -49.941 -53.356  0.00  0.00    +0.000 OA
ATOM      7  N   UNL     1     -63.474 -48.234 -51.979  0.00  0.00    +0.000 N 
ATOM      8  C   UNL     1     -64.305 -48.934 -52.801  0.00  0.00    +0.000 C 
ATOM      9  H   UNL     1     -62.542 -48.635 -51.977  0.00  0.00    +0.000 HD
BRANCH   7  10
ATOM     10  CA  UNL     1     -63.598 -46.861 -51.489  0.00  0.00    +0.000 C 
BRANCH  10  12
ATOM     11  O   UNL     1     -63.904 -45.617 -53.562  0.00  0.00    +0.000 OA
ATOM     12  C   UNL     1     -63.201 -45.874 -52.587  0.00  0.00    +0.000 C 
ENDBRANCH  10  12
BRANCH  10  13
ATOM     13  CB  UNL     1     -62.847 -46.647 -50.166  0.00  0.00    +0.000 C 
BRANCH  13  14
ATOM     14  CG  UNL     1     -63.363 -45.534 -49.227  0.00  0.00    +0.000 C 
ATOM     15  CD1 UNL     1     -64.880 -45.362 -49.259  0.00  0.00    +0.000 C 
ATOM     16  CD2 UNL     1     -62.914 -45.832 -47.792  0.00  0.00    +0.000 C 
ENDBRANCH  13  14
ENDBRANCH  10  13
ENDBRANCH   7  10
ENDBRANCH   5   8
BRANCH   5  17
ATOM     17  CB  UNL     1     -66.715 -49.679 -52.719  0.00  0.00    +0.000 C 
BRANCH  17  18
ATOM     18  CG  UNL     1     -66.911 -49.981 -51.220  0.00  0.00    +0.000 C 
ATOM     19  CD1 UNL     1     -67.821 -48.961 -50.535  0.00  0.00    +0.000 C 
ATOM     20  CD2 UNL     1     -67.503 -51.384 -51.050  0.00  0.00    +0.000 C 
ENDBRANCH  17  18
ENDBRANCH   5  17
ENDBRANCH   2   5
BRANCH   3  21
ATOM     21  CA  UNL     1     -66.469 -46.639 -56.293  0.00  0.00    +0.000 C 
BRANCH  21  23
ATOM     22  O   UNL     1     -66.049 -44.247 -57.731  0.00  0.00    +0.000 OA
ATOM     23  N   UNL     1     -65.183 -45.950 -56.463  0.00  0.00    +0.000 N 
ATOM     24  C   ACE A   0     -65.096 -44.810 -57.217  0.00  0.00    +0.000 C 
ATOM     25  H   UNL     1     -64.342 -46.506 -56.395  0.00  0.00    +0.000 HD
BRANCH  24  26
ATOM     26  O   UNL     1     -63.817 -44.420 -57.433  0.00  0.00    +0.000 OA
BRANCH  26  27
ATOM     27  C   UNL     1     -62.834 -45.460 -57.365  0.00  0.00    +0.000 C 
BRANCH  27  28
ATOM     28  C   UNL     1     -62.437 -45.876 -58.760  0.00  0.00    +0.000 A 
ATOM     29  C   UNL     1     -61.331 -45.289 -59.389  0.00  0.00    +0.000 A 
ATOM     30  C   UNL     1     -63.201 -46.812 -59.474  0.00  0.00    +0.000 A 
ATOM     31  C   UNL     1     -60.981 -45.649 -60.692  0.00  0.00    +0.000 A 
ATOM     32  C   UNL     1     -62.851 -47.171 -60.776  0.00  0.00    +0.000 A 
ATOM     33  C   UNL     1     -61.740 -46.590 -61.385  0.00  0.00    +0.000 A 
ENDBRANCH  27  28
ENDBRANCH  26  27
ENDBRANCH  24  26
ENDBRANCH  21  23
BRANCH  21  34
ATOM     34  CB  UNL     1     -66.544 -47.846 -57.244  0.00  0.00    +0.000 C 
BRANCH  34  35
ATOM     35  CG  UNL     1     -67.560 -47.734 -58.400  0.00  0.00    +0.000 C 
ATOM     36  CD1 UNL     1     -68.625 -46.668 -58.140  0.00  0.00    +0.000 C 
ATOM     37  CD2 UNL     1     -66.819 -47.411 -59.702  0.00  0.00    +0.000 C 
ENDBRANCH  34  35
ENDBRANCH  21  34
ENDBRANCH   3  21
TORSDOF 15
ENDMDL
MODEL 3
REMARK VINA RESULT:      -4.8     29.229     32.534
REMARK  Name = 
REMARK  21 active torsions:
REMARK  status: ('A' for Active; 'I' for Inactive)
REMARK    1  A    between atoms: O_3  and  C_27
REMARK    2  A    between atoms: O_3  and  C_28
REMARK    3  A    between atoms: N_6  and  CA_9
REMARK    4  A    between atoms: N_7  and  CA_15
REMARK    5  A    between atoms: N_8  and  CA_12
REMARK    6  A    between atoms: CA_9  and  CB_10
REMARK    7  A    between atoms: CA_9  and  C_16
REMARK    8  A    between atoms: CB_10  and  CG_11
REMARK    9  A    between atoms: CG_11  and  CD1_20
REMARK   10  A    between atoms: CG_11  and  CD2_21
REMARK   11  A    between atoms: CA_12  and  CB_13
REMARK   12  A    between atoms: CA_12  and  C_18
REMARK   13  A    between atoms: CB_13  and  CG_14
REMARK   14  A    between atoms: CG_14  and  CD1_22
REMARK   15  A    between atoms: CG_14  and  CD2_23
REMARK   16  A    between atoms: CA_15  and  CB_17
REMARK   17  A    between atoms: CA_15  and  C_26
REMARK   18  A    between atoms: CB_17  and  CG_19
REMARK   19  A    between atoms: CG_19  and  CD1_24
REMARK   20  A    between atoms: CG_19  and  CD2_25
REMARK   21  A    between atoms: C_28  and  C_29
REMARK                            x       y       z     vdW  Elec       q    Type
REMARK                         _______ _______ _______ _____ _____    ______ ____
ROOT
ATOM      1  O   UNL     1     -62.984 -43.724 -57.523  0.00  0.00    +0.000 OA
ATOM      2  N   UNL     1     -63.439 -45.959 -57.564  0.00  0.00    +0.000 N 
ATOM      3  C   UNL     1     -62.641 -44.861 -57.834  0.00  0.00    +0.000 C 
ATOM      4  H   UNL     1     -62.917 -46.814 -57.387  0.00  0.00    +0.000 HD
ENDROOT
BRANCH   2   5
ATOM      5  CA  UNL     1     -64.658 -45.789 -56.771  0.00  0.00    +0.000 C 
BRANCH   5   8
ATOM      6  O   UNL     1     -64.488 -47.846 -55.514  0.00  0.00    +0.000 OA
ATOM      7  N   UNL     1     -64.153 -46.012 -54.299  0.00  0.00    +0.000 N 
ATOM      8  C   UNL     1     -64.420 -46.613 -55.491  0.00  0.00    +0.000 C 
ATOM      9  H   UNL     1     -63.994 -46.702 -53.572  0.00  0.00    +0.000 HD
BRANCH   7  10
ATOM     10  CA  UNL     1     -63.671 -44.657 -54.034  0.00  0.00    +0.000 C 
BRANCH  10  12
ATOM     11  O   UNL     1     -61.458 -44.574 -53.018  0.00  0.00    +0.000 OA
ATOM     12  C   UNL     1     -62.674 -44.671 -52.875  0.00  0.00    +0.000 C 
ENDBRANCH  10  12
BRANCH  10  13
ATOM     13  CB  UNL     1     -64.823 -43.657 -53.844  0.00  0.00    +0.000 C 
BRANCH  13  14
ATOM     14  CG  UNL     1     -64.995 -42.558 -54.915  0.00  0.00    +0.000 C 
ATOM     15  CD1 UNL     1     -66.411 -42.471 -55.480  0.00  0.00    +0.000 C 
ATOM     16  CD2 UNL     1     -64.600 -41.202 -54.319  0.00  0.00    +0.000 C 
ENDBRANCH  13  14
ENDBRANCH  10  13
ENDBRANCH   7  10
ENDBRANCH   5   8
BRANCH   5  17
ATOM     17  CB  UNL     1     -65.866 -46.340 -57.542  0.00  0.00    +0.000 C 
BRANCH  17  18
ATOM     18  CG  UNL     1     -65.593 -46.647 -59.028  0.00  0.00    +0.000 C 
ATOM     19  CD1 UNL     1     -66.248 -47.952 -59.481  0.00  0.00    +0.000 C 
ATOM     20  CD2 UNL     1     -66.105 -45.494 -59.896  0.00  0.00    +0.000 C 
ENDBRANCH  17  18
ENDBRANCH   5  17
ENDBRANCH   2   5
BRANCH   3  21
ATOM     21  CA  UNL     1     -61.272 -45.199 -58.474  0.00  0.00    +0.000 C 
BRANCH  21  23
ATOM     22  O   UNL     1     -59.435 -43.107 -58.007  0.00  0.00    +0.000 OA
ATOM     23  N   UNL     1     -60.225 -45.185 -57.443  0.00  0.00    +0.000 N 
ATOM     24  C   ACE A   0     -59.366 -44.124 -57.335  0.00  0.00    +0.000 C 
ATOM     25  H   UNL     1     -59.879 -46.076 -57.116  0.00  0.00    +0.000 HD
BRANCH  24  26
ATOM     26  O   UNL     1     -58.347 -44.360 -56.474  0.00  0.00    +0.000 OA
BRANCH  26  27
ATOM     27  C   UNL     1     -58.109 -43.334 -55.502  0.00  0.00    +0.000 C 
BRANCH  27  28
ATOM     28  C   UNL     1     -57.317 -43.901 -54.350  0.00  0.00    +0.000 A 
ATOM     29  C   UNL     1     -55.919 -43.802 -54.332  0.00  0.00    +0.000 A 
ATOM     30  C   UNL     1     -57.959 -44.587 -53.308  0.00  0.00    +0.000 A 
ATOM     31  C   UNL     1     -55.181 -44.355 -53.282  0.00  0.00    +0.000 A 
ATOM     32  C   UNL     1     -57.221 -45.139 -52.260  0.00  0.00    +0.000 A 
ATOM     33  C   UNL     1     -55.832 -45.022 -52.247  0.00  0.00    +0.000 A 
ENDBRANCH  27  28
ENDBRANCH  26  27
ENDBRANCH  24  26
ENDBRANCH  21  23
BRANCH  21  34
ATOM     34  CB  UNL     1     -61.299 -46.570 -59.171  0.00  0.00    +0.000 C 
BRANCH  34  35
ATOM     35  CG  UNL     1     -61.256 -46.546 -60.713  0.00  0.00    +0.000 C 
ATOM     36  CD1 UNL     1     -62.602 -46.906 -61.342  0.00  0.00    +0.000 C 
ATOM     37  CD2 UNL     1     -60.824 -45.155 -61.190  0.00  0.00    +0.000 C 
ENDBRANCH  34  35
ENDBRANCH  21  34
ENDBRANCH   3  21
TORSDOF 15
ENDMDL
MODEL 4
REMARK VINA RESULT:      -4.7     30.696     33.377
REMARK  Name = 
REMARK  21 active torsions:
REMARK  status: ('A' for Active; 'I' for Inactive)
REMARK    1  A    between atoms: O_3  and  C_27
REMARK    2  A    between atoms: O_3  and  C_28
REMARK    3  A    between atoms: N_6  and  CA_9
REMARK    4  A    between atoms: N_7  and  CA_15
REMARK    5  A    between atoms: N_8  and  CA_12
REMARK    6  A    between atoms: CA_9  and  CB_10
REMARK    7  A    between atoms: CA_9  and  C_16
REMARK    8  A    between atoms: CB_10  and  CG_11
REMARK    9  A    between atoms: CG_11  and  CD1_20
REMARK   10  A    between atoms: CG_11  and  CD2_21
REMARK   11  A    between atoms: CA_12  and  CB_13
REMARK   12  A    between atoms: CA_12  and  C_18
REMARK   13  A    between atoms: CB_13  and  CG_14
REMARK   14  A    between atoms: CG_14  and  CD1_22
REMARK   15  A    between atoms: CG_14  and  CD2_23
REMARK   16  A    between atoms: CA_15  and  CB_17
REMARK   17  A    between atoms: CA_15  and  C_26
REMARK   18  A    between atoms: CB_17  and  CG_19
REMARK   19  A    between atoms: CG_19  and  CD1_24
REMARK   20  A    between atoms: CG_19  and  CD2_25
REMARK   21  A    between atoms: C_28  and  C_29
REMARK                            x       y       z     vdW  Elec       q    Type
REMARK                         _______ _______ _______ _____ _____    ______ ____
ROOT
ATOM      1  O   UNL     1     -61.622 -42.643 -58.258  0.00  0.00    +0.000 OA
ATOM      2  N   UNL     1     -61.016 -44.719 -57.530  0.00  0.00    +0.000 N 
ATOM      3  C   UNL     1     -60.934 -43.337 -57.515  0.00  0.00    +0.000 C 
ATOM      4  H   UNL     1     -60.834 -45.151 -56.627  0.00  0.00    +0.000 HD
ENDROOT
BRANCH   2   5
ATOM      5  CA  UNL     1     -62.036 -45.373 -58.350  0.00  0.00    +0.000 C 
BRANCH   5   8
ATOM      6  O   UNL     1     -63.007 -45.593 -56.148  0.00  0.00    +0.000 OA
ATOM      7  N   UNL     1     -64.319 -46.316 -57.794  0.00  0.00    +0.000 N 
ATOM      8  C   UNL     1     -63.153 -45.760 -57.364  0.00  0.00    +0.000 C 
ATOM      9  H   UNL     1     -64.953 -46.479 -57.018  0.00  0.00    +0.000 HD
BRANCH   7  10
ATOM     10  CA  UNL     1     -64.911 -46.305 -59.132  0.00  0.00    +0.000 C 
BRANCH  10  12
ATOM     11  O   UNL     1     -66.308 -44.677 -60.287  0.00  0.00    +0.000 OA
ATOM     12  C   UNL     1     -65.418 -44.903 -59.470  0.00  0.00    +0.000 C 
ENDBRANCH  10  12
BRANCH  10  13
ATOM     13  CB  UNL     1     -65.972 -47.403 -59.306  0.00  0.00    +0.000 C 
BRANCH  13  14
ATOM     14  CG  UNL     1     -67.182 -47.383 -58.346  0.00  0.00    +0.000 C 
ATOM     15  CD1 UNL     1     -68.527 -47.262 -59.060  0.00  0.00    +0.000 C 
ATOM     16  CD2 UNL     1     -67.172 -48.655 -57.490  0.00  0.00    +0.000 C 
ENDBRANCH  13  14
ENDBRANCH  10  13
ENDBRANCH   7  10
ENDBRANCH   5   8
BRANCH   5  17
ATOM     17  CB  UNL     1     -61.450 -46.629 -59.011  0.00  0.00    +0.000 C 
BRANCH  17  18
ATOM     18  CG  UNL     1     -61.166 -46.488 -60.519  0.00  0.00    +0.000 C 
ATOM     19  CD1 UNL     1     -62.262 -47.119 -61.379  0.00  0.00    +0.000 C 
ATOM     20  CD2 UNL     1     -61.028 -45.006 -60.882  0.00  0.00    +0.000 C 
ENDBRANCH  17  18
ENDBRANCH   5  17
ENDBRANCH   2   5
BRANCH   3  21
ATOM     21  CA  UNL     1     -59.981 -42.757 -56.441  0.00  0.00    +0.000 C 
BRANCH  21  23
ATOM     22  O   UNL     1     -58.896 -42.607 -53.839  0.00  0.00    +0.000 OA
ATOM     23  N   UNL     1     -59.322 -43.853 -55.717  0.00  0.00    +0.000 N 
ATOM     24  C   ACE A   0     -58.801 -43.650 -54.467  0.00  0.00    +0.000 C 
ATOM     25  H   UNL     1     -58.896 -44.586 -56.266  0.00  0.00    +0.000 HD
BRANCH  24  26
ATOM     26  O   UNL     1     -58.061 -44.697 -54.031  0.00  0.00    +0.000 OA
BRANCH  26  27
ATOM     27  C   UNL     1     -57.736 -44.686 -52.635  0.00  0.00    +0.000 C 
BRANCH  27  28
ATOM     28  C   UNL     1     -56.259 -44.937 -52.456  0.00  0.00    +0.000 A 
ATOM     29  C   UNL     1     -55.805 -45.843 -51.487  0.00  0.00    +0.000 A 
ATOM     30  C   UNL     1     -55.314 -44.227 -53.212  0.00  0.00    +0.000 A 
ATOM     31  C   UNL     1     -54.437 -46.053 -51.297  0.00  0.00    +0.000 A 
ATOM     32  C   UNL     1     -53.947 -44.438 -53.021  0.00  0.00    +0.000 A 
ATOM     33  C   UNL     1     -53.509 -45.352 -52.065  0.00  0.00    +0.000 A 
ENDBRANCH  27  28
ENDBRANCH  26  27
ENDBRANCH  24  26
ENDBRANCH  21  23
BRANCH  21  34
ATOM     34  CB  UNL     1     -58.920 -41.835 -57.068  0.00  0.00    +0.000 C 
BRANCH  34  35
ATOM     35  CG  UNL     1     -58.022 -42.475 -58.148  0.00  0.00    +0.000 C 
ATOM     36  CD1 UNL     1     -58.137 -41.767 -59.499  0.00  0.00    +0.000 C 
ATOM     37  CD2 UNL     1     -56.563 -42.449 -57.680  0.00  0.00    +0.000 C 
ENDBRANCH  34  35
ENDBRANCH  21  34
ENDBRANCH   3  21
TORSDOF 15
ENDMDL
MODEL 5
REMARK VINA RESULT:      -4.7     22.525     28.822
REMARK  Name = 
REMARK  21 active torsions:
REMARK  status: ('A' for Active; 'I' for Inactive)
REMARK    1  A    between atoms: O_3  and  C_27
REMARK    2  A    between atoms: O_3  and  C_28
REMARK    3  A    between atoms: N_6  and  CA_9
REMARK    4  A    between atoms: N_7  and  CA_15
REMARK    5  A    between atoms: N_8  and  CA_12
REMARK    6  A    between atoms: CA_9  and  CB_10
REMARK    7  A    between atoms: CA_9  and  C_16
REMARK    8  A    between atoms: CB_10  and  CG_11
REMARK    9  A    between atoms: CG_11  and  CD1_20
REMARK   10  A    between atoms: CG_11  and  CD2_21
REMARK   11  A    between atoms: CA_12  and  CB_13
REMARK   12  A    between atoms: CA_12  and  C_18
REMARK   13  A    between atoms: CB_13  and  CG_14
REMARK   14  A    between atoms: CG_14  and  CD1_22
REMARK   15  A    between atoms: CG_14  and  CD2_23
REMARK   16  A    between atoms: CA_15  and  CB_17
REMARK   17  A    between atoms: CA_15  and  C_26
REMARK   18  A    between atoms: CB_17  and  CG_19
REMARK   19  A    between atoms: CG_19  and  CD1_24
REMARK   20  A    between atoms: CG_19  and  CD2_25
REMARK   21  A    between atoms: C_28  and  C_29
REMARK                            x       y       z     vdW  Elec       q    Type
REMARK                         _______ _______ _______ _____ _____    ______ ____
ROOT
ATOM      1  O   UNL     1     -61.699 -59.053 -53.499  0.00  0.00    +0.000 OA
ATOM      2  N   UNL     1     -60.051 -57.806 -52.533  0.00  0.00    +0.000 N 
ATOM      3  C   UNL     1     -60.653 -58.422 -53.617  0.00  0.00    +0.000 C 
ATOM      4  H   UNL     1     -59.542 -56.958 -52.772  0.00  0.00    +0.000 HD
ENDROOT
BRANCH   2   5
ATOM      5  CA  UNL     1     -60.738 -57.787 -51.240  0.00  0.00    +0.000 C 
BRANCH   5   8
ATOM      6  O   UNL     1     -59.337 -55.868 -50.797  0.00  0.00    +0.000 OA
ATOM      7  N   UNL     1     -61.387 -55.709 -49.946  0.00  0.00    +0.000 N 
ATOM      8  C   UNL     1     -60.446 -56.393 -50.654  0.00  0.00    +0.000 C 
ATOM      9  H   UNL     1     -61.039 -54.800 -49.661  0.00  0.00    +0.000 HD
BRANCH   7  10
ATOM     10  CA  UNL     1     -62.838 -55.894 -49.917  0.00  0.00    +0.000 C 
BRANCH  10  12
ATOM     11  O   UNL     1     -63.423 -53.912 -48.627  0.00  0.00    +0.000 OA
ATOM     12  C   UNL     1     -63.533 -54.555 -49.667  0.00  0.00    +0.000 C 
ENDBRANCH  10  12
BRANCH  10  13
ATOM     13  CB  UNL     1     -63.263 -57.001 -48.939  0.00  0.00    +0.000 C 
BRANCH  13  14
ATOM     14  CG  UNL     1     -62.450 -57.150 -47.634  0.00  0.00    +0.000 C 
ATOM     15  CD1 UNL     1     -63.175 -56.623 -46.398  0.00  0.00    +0.000 C 
ATOM     16  CD2 UNL     1     -62.090 -58.625 -47.425  0.00  0.00    +0.000 C 
ENDBRANCH  13  14
ENDBRANCH  10  13
ENDBRANCH   7  10
ENDBRANCH   5   8
BRANCH   5  17
ATOM     17  CB  UNL     1     -60.164 -58.880 -50.327  0.00  0.00    +0.000 C 
BRANCH  17  18
ATOM     18  CG  UNL     1     -58.706 -59.274 -50.635  0.00  0.00    +0.000 C 
ATOM     19  CD1 UNL     1     -57.757 -58.939 -49.484  0.00  0.00    +0.000 C 
ATOM     20  CD2 UNL     1     -58.630 -60.775 -50.935  0.00  0.00    +0.000 C 
ENDBRANCH  17  18
ENDBRANCH   5  17
ENDBRANCH   2   5
BRANCH   3  21
ATOM     21  CA  UNL     1     -59.947 -58.177 -54.974  0.00  0.00    +0.000 C 
BRANCH  21  23
ATOM     22  O   UNL     1     -62.004 -58.310 -56.903  0.00  0.00    +0.000 OA
ATOM     23  N   UNL     1     -60.565 -57.032 -55.655  0.00  0.00    +0.000 N 
ATOM     24  C   ACE A   0     -61.534 -57.224 -56.604  0.00  0.00    +0.000 C 
ATOM     25  H   UNL     1     -60.018 -56.187 -55.740  0.00  0.00    +0.000 HD
BRANCH  24  26
ATOM     26  O   UNL     1     -61.850 -56.087 -57.269  0.00  0.00    +0.000 OA
BRANCH  26  27
ATOM     27  C   UNL     1     -62.057 -56.233 -58.680  0.00  0.00    +0.000 C 
BRANCH  27  28
ATOM     28  C   UNL     1     -60.858 -55.701 -59.426  0.00  0.00    +0.000 A 
ATOM     29  C   UNL     1     -60.970 -54.558 -60.229  0.00  0.00    +0.000 A 
ATOM     30  C   UNL     1     -59.628 -56.374 -59.379  0.00  0.00    +0.000 A 
ATOM     31  C   UNL     1     -59.870 -54.083 -60.946  0.00  0.00    +0.000 A 
ATOM     32  C   UNL     1     -58.529 -55.899 -60.097  0.00  0.00    +0.000 A 
ATOM     33  C   UNL     1     -58.651 -54.752 -60.879  0.00  0.00    +0.000 A 
ENDBRANCH  27  28
ENDBRANCH  26  27
ENDBRANCH  24  26
ENDBRANCH  21  23
BRANCH  21  34
ATOM     34  CB  UNL     1     -58.441 -57.922 -54.787  0.00  0.00    +0.000 C 
BRANCH  34  35
ATOM     35  CG  UNL     1     -57.853 -56.736 -55.580  0.00  0.00    +0.000 C 
ATOM     36  CD1 UNL     1     -56.937 -55.859 -54.726  0.00  0.00    +0.000 C 
ATOM     37  CD2 UNL     1     -57.074 -57.266 -56.789  0.00  0.00    +0.000 C 
ENDBRANCH  34  35
ENDBRANCH  21  34
ENDBRANCH   3  21
TORSDOF 15
ENDMDL
MODEL 6
REMARK VINA RESULT:      -4.7     12.330     16.761
REMARK  Name = 
REMARK  21 active torsions:
REMARK  status: ('A' for Active; 'I' for Inactive)
REMARK    1  A    between atoms: O_3  and  C_27
REMARK    2  A    between atoms: O_3  and  C_28
REMARK    3  A    between atoms: N_6  and  CA_9
REMARK    4  A    between atoms: N_7  and  CA_15
REMARK    5  A    between atoms: N_8  and  CA_12
REMARK    6  A    between atoms: CA_9  and  CB_10
REMARK    7  A    between atoms: CA_9  and  C_16
REMARK    8  A    between atoms: CB_10  and  CG_11
REMARK    9  A    between atoms: CG_11  and  CD1_20
REMARK   10  A    between atoms: CG_11  and  CD2_21
REMARK   11  A    between atoms: CA_12  and  CB_13
REMARK   12  A    between atoms: CA_12  and  C_18
REMARK   13  A    between atoms: CB_13  and  CG_14
REMARK   14  A    between atoms: CG_14  and  CD1_22
REMARK   15  A    between atoms: CG_14  and  CD2_23
REMARK   16  A    between atoms: CA_15  and  CB_17
REMARK   17  A    between atoms: CA_15  and  C_26
REMARK   18  A    between atoms: CB_17  and  CG_19
REMARK   19  A    between atoms: CG_19  and  CD1_24
REMARK   20  A    between atoms: CG_19  and  CD2_25
REMARK   21  A    between atoms: C_28  and  C_29
REMARK                            x       y       z     vdW  Elec       q    Type
REMARK                         _______ _______ _______ _____ _____    ______ ____
ROOT
ATOM      1  O   UNL     1     -62.246 -55.636 -17.998  0.00  0.00    +0.000 OA
ATOM      2  N   UNL     1     -63.467 -54.153 -16.767  0.00  0.00    +0.000 N 
ATOM      3  C   UNL     1     -62.888 -54.591 -17.946  0.00  0.00    +0.000 C 
ATOM      4  H   UNL     1     -64.325 -53.625 -16.902  0.00  0.00    +0.000 HD
ENDROOT
BRANCH   2   5
ATOM      5  CA  UNL     1     -63.433 -55.012 -15.583  0.00  0.00    +0.000 C 
BRANCH   5   8
ATOM      6  O   UNL     1     -65.815 -55.247 -15.916  0.00  0.00    +0.000 OA
ATOM      7  N   UNL     1     -64.791 -57.135 -15.335  0.00  0.00    +0.000 N 
ATOM      8  C   UNL     1     -64.752 -55.807 -15.629  0.00  0.00    +0.000 C 
ATOM      9  H   UNL     1     -65.730 -57.505 -15.444  0.00  0.00    +0.000 HD
BRANCH   7  10
ATOM     10  CA  UNL     1     -63.702 -58.111 -15.314  0.00  0.00    +0.000 C 
BRANCH  10  12
ATOM     11  O   UNL     1     -64.998 -60.136 -15.709  0.00  0.00    +0.000 OA
ATOM     12  C   UNL     1     -64.110 -59.371 -16.078  0.00  0.00    +0.000 C 
ENDBRANCH  10  12
BRANCH  10  13
ATOM     13  CB  UNL     1     -63.198 -58.390 -13.890  0.00  0.00    +0.000 C 
BRANCH  13  14
ATOM     14  CG  UNL     1     -64.143 -58.041 -12.719  0.00  0.00    +0.000 C 
ATOM     15  CD1 UNL     1     -64.631 -59.261 -11.941  0.00  0.00    +0.000 C 
ATOM     16  CD2 UNL     1     -63.433 -57.077 -11.762  0.00  0.00    +0.000 C 
ENDBRANCH  13  14
ENDBRANCH  10  13
ENDBRANCH   7  10
ENDBRANCH   5   8
BRANCH   5  17
ATOM     17  CB  UNL     1     -63.374 -54.152 -14.313  0.00  0.00    +0.000 C 
BRANCH  17  18
ATOM     18  CG  UNL     1     -61.958 -53.952 -13.738  0.00  0.00    +0.000 C 
ATOM     19  CD1 UNL     1     -61.975 -53.668 -12.236  0.00  0.00    +0.000 C 
ATOM     20  CD2 UNL     1     -61.110 -55.198 -14.010  0.00  0.00    +0.000 C 
ENDBRANCH  17  18
ENDBRANCH   5  17
ENDBRANCH   2   5
BRANCH   3  21
ATOM     21  CA  UNL     1     -63.187 -53.707 -19.181  0.00  0.00    +0.000 C 
BRANCH  21  23
ATOM     22  O   UNL     1     -61.054 -53.744 -21.030  0.00  0.00    +0.000 OA
ATOM     23  N   UNL     1     -63.119 -54.520 -20.403  0.00  0.00    +0.000 N 
ATOM     24  C   ACE A   0     -62.044 -54.426 -21.245  0.00  0.00    +0.000 C 
ATOM     25  H   UNL     1     -63.992 -54.806 -20.823  0.00  0.00    +0.000 HD
BRANCH  24  26
ATOM     26  O   UNL     1     -62.232 -55.086 -22.412  0.00  0.00    +0.000 OA
BRANCH  26  27
ATOM     27  C   UNL     1     -61.588 -54.514 -23.557  0.00  0.00    +0.000 C 
BRANCH  27  28
ATOM     28  C   UNL     1     -60.782 -55.573 -24.269  0.00  0.00    +0.000 A 
ATOM     29  C   UNL     1     -60.567 -55.492 -25.652  0.00  0.00    +0.000 A 
ATOM     30  C   UNL     1     -60.287 -56.686 -23.572  0.00  0.00    +0.000 A 
ATOM     31  C   UNL     1     -59.849 -56.489 -26.318  0.00  0.00    +0.000 A 
ATOM     32  C   UNL     1     -59.570 -57.681 -24.239  0.00  0.00    +0.000 A 
ATOM     33  C   UNL     1     -59.351 -57.581 -25.612  0.00  0.00    +0.000 A 
ENDBRANCH  27  28
ENDBRANCH  26  27
ENDBRANCH  24  26
ENDBRANCH  21  23
BRANCH  21  34
ATOM     34  CB  UNL     1     -64.571 -53.040 -19.075  0.00  0.00    +0.000 C 
BRANCH  34  35
ATOM     35  CG  UNL     1     -64.577 -51.497 -19.039  0.00  0.00    +0.000 C 
ATOM     36  CD1 UNL     1     -63.689 -50.884 -20.123  0.00  0.00    +0.000 C 
ATOM     37  CD2 UNL     1     -66.013 -50.988 -19.204  0.00  0.00    +0.000 C 
ENDBRANCH  34  35
ENDBRANCH  21  34
ENDBRANCH   3  21
TORSDOF 15
ENDMDL
MODEL 7
REMARK VINA RESULT:      -4.7     12.168     15.370
REMARK  Name = 
REMARK  21 active torsions:
REMARK  status: ('A' for Active; 'I' for Inactive)
REMARK    1  A    between atoms: O_3  and  C_27
REMARK    2  A    between atoms: O_3  and  C_28
REMARK    3  A    between atoms: N_6  and  CA_9
REMARK    4  A    between atoms: N_7  and  CA_15
REMARK    5  A    between atoms: N_8  and  CA_12
REMARK    6  A    between atoms: CA_9  and  CB_10
REMARK    7  A    between atoms: CA_9  and  C_16
REMARK    8  A    between atoms: CB_10  and  CG_11
REMARK    9  A    between atoms: CG_11  and  CD1_20
REMARK   10  A    between atoms: CG_11  and  CD2_21
REMARK   11  A    between atoms: CA_12  and  CB_13
REMARK   12  A    between atoms: CA_12  and  C_18
REMARK   13  A    between atoms: CB_13  and  CG_14
REMARK   14  A    between atoms: CG_14  and  CD1_22
REMARK   15  A    between atoms: CG_14  and  CD2_23
REMARK   16  A    between atoms: CA_15  and  CB_17
REMARK   17  A    between atoms: CA_15  and  C_26
REMARK   18  A    between atoms: CB_17  and  CG_19
REMARK   19  A    between atoms: CG_19  and  CD1_24
REMARK   20  A    between atoms: CG_19  and  CD2_25
REMARK   21  A    between atoms: C_28  and  C_29
REMARK                            x       y       z     vdW  Elec       q    Type
REMARK                         _______ _______ _______ _____ _____    ______ ____
ROOT
ATOM      1  O   UNL     1     -64.111 -53.864 -19.716  0.00  0.00    +0.000 OA
ATOM      2  N   UNL     1     -62.637 -53.108 -18.148  0.00  0.00    +0.000 N 
ATOM      3  C   UNL     1     -62.949 -53.729 -19.346  0.00  0.00    +0.000 C 
ATOM      4  H   UNL     1     -61.748 -52.614 -18.160  0.00  0.00    +0.000 HD
ENDROOT
BRANCH   2   5
ATOM      5  CA  UNL     1     -63.699 -52.477 -17.363  0.00  0.00    +0.000 C 
BRANCH   5   8
ATOM      6  O   UNL     1     -62.562 -50.517 -16.526  0.00  0.00    +0.000 OA
ATOM      7  N   UNL     1     -63.920 -50.112 -18.242  0.00  0.00    +0.000 N 
ATOM      8  C   UNL     1     -63.353 -50.977 -17.356  0.00  0.00    +0.000 C 
ATOM      9  H   UNL     1     -63.558 -49.173 -18.116  0.00  0.00    +0.000 HD
BRANCH   7  10
ATOM     10  CA  UNL     1     -64.581 -50.395 -19.516  0.00  0.00    +0.000 C 
BRANCH  10  12
ATOM     11  O   UNL     1     -63.056 -50.887 -21.351  0.00  0.00    +0.000 OA
ATOM     12  C   UNL     1     -63.651 -50.048 -20.679  0.00  0.00    +0.000 C 
ENDBRANCH  10  12
BRANCH  10  13
ATOM     13  CB  UNL     1     -65.963 -49.731 -19.613  0.00  0.00    +0.000 C 
BRANCH  13  14
ATOM     14  CG  UNL     1     -67.175 -50.528 -19.083  0.00  0.00    +0.000 C 
ATOM     15  CD1 UNL     1     -66.942 -52.037 -19.035  0.00  0.00    +0.000 C 
ATOM     16  CD2 UNL     1     -67.541 -50.024 -17.682  0.00  0.00    +0.000 C 
ENDBRANCH  13  14
ENDBRANCH  10  13
ENDBRANCH   7  10
ENDBRANCH   5   8
BRANCH   5  17
ATOM     17  CB  UNL     1     -63.693 -53.033 -15.932  0.00  0.00    +0.000 C 
BRANCH  17  18
ATOM     18  CG  UNL     1     -65.070 -53.495 -15.416  0.00  0.00    +0.000 C 
ATOM     19  CD1 UNL     1     -66.020 -52.324 -15.165  0.00  0.00    +0.000 C 
ATOM     20  CD2 UNL     1     -65.704 -54.454 -16.429  0.00  0.00    +0.000 C 
ENDBRANCH  17  18
ENDBRANCH   5  17
ENDBRANCH   2   5
BRANCH   3  21
ATOM     21  CA  UNL     1     -61.724 -54.151 -20.194  0.00  0.00    +0.000 C 
BRANCH  21  23
ATOM     22  O   UNL     1     -61.996 -55.715 -22.528  0.00  0.00    +0.000 OA
ATOM     23  N   UNL     1     -61.867 -53.638 -21.563  0.00  0.00    +0.000 N 
ATOM     24  C   ACE A   0     -61.955 -54.499 -22.625  0.00  0.00    +0.000 C 
ATOM     25  H   UNL     1     -61.492 -52.721 -21.760  0.00  0.00    +0.000 HD
BRANCH  24  26
ATOM     26  O   UNL     1     -61.881 -53.866 -23.820  0.00  0.00    +0.000 OA
BRANCH  26  27
ATOM     27  C   UNL     1     -60.594 -53.884 -24.450  0.00  0.00    +0.000 C 
BRANCH  27  28
ATOM     28  C   UNL     1     -60.411 -52.629 -25.267  0.00  0.00    +0.000 A 
ATOM     29  C   UNL     1     -59.160 -52.314 -25.816  0.00  0.00    +0.000 A 
ATOM     30  C   UNL     1     -61.471 -51.726 -25.442  0.00  0.00    +0.000 A 
ATOM     31  C   UNL     1     -58.980 -51.137 -26.545  0.00  0.00    +0.000 A 
ATOM     32  C   UNL     1     -61.290 -50.550 -26.171  0.00  0.00    +0.000 A 
ATOM     33  C   UNL     1     -60.045 -50.256 -26.723  0.00  0.00    +0.000 A 
ENDBRANCH  27  28
ENDBRANCH  26  27
ENDBRANCH  24  26
ENDBRANCH  21  23
BRANCH  21  34
ATOM     34  CB  UNL     1     -60.410 -53.637 -19.579  0.00  0.00    +0.000 C 
BRANCH  34  35
ATOM     35  CG  UNL     1     -59.168 -54.526 -19.799  0.00  0.00    +0.000 C 
ATOM     36  CD1 UNL     1     -59.525 -56.007 -19.934  0.00  0.00    +0.000 C 
ATOM     37  CD2 UNL     1     -58.423 -54.062 -21.055  0.00  0.00    +0.000 C 
ENDBRANCH  34  35
ENDBRANCH  21  34
ENDBRANCH   3  21
TORSDOF 15
ENDMDL
MODEL 8
REMARK VINA RESULT:      -4.6      2.693      8.992
REMARK  Name = 
REMARK  21 active torsions:
REMARK  status: ('A' for Active; 'I' for Inactive)
REMARK    1  A    between atoms: O_3  and  C_27
REMARK    2  A    between atoms: O_3  and  C_28
REMARK    3  A    between atoms: N_6  and  CA_9
REMARK    4  A    between atoms: N_7  and  CA_15
REMARK    5  A    between atoms: N_8  and  CA_12
REMARK    6  A    between atoms: CA_9  and  CB_10
REMARK    7  A    between atoms: CA_9  and  C_16
REMARK    8  A    between atoms: CB_10  and  CG_11
REMARK    9  A    between atoms: CG_11  and  CD1_20
REMARK   10  A    between atoms: CG_11  and  CD2_21
REMARK   11  A    between atoms: CA_12  and  CB_13
REMARK   12  A    between atoms: CA_12  and  C_18
REMARK   13  A    between atoms: CB_13  and  CG_14
REMARK   14  A    between atoms: CG_14  and  CD1_22
REMARK   15  A    between atoms: CG_14  and  CD2_23
REMARK   16  A    between atoms: CA_15  and  CB_17
REMARK   17  A    between atoms: CA_15  and  C_26
REMARK   18  A    between atoms: CB_17  and  CG_19
REMARK   19  A    between atoms: CG_19  and  CD1_24
REMARK   20  A    between atoms: CG_19  and  CD2_25
REMARK   21  A    between atoms: C_28  and  C_29
REMARK                            x       y       z     vdW  Elec       q    Type
REMARK                         _______ _______ _______ _____ _____    ______ ____
ROOT
ATOM      1  O   UNL     1     -71.242 -60.955 -27.123  0.00  0.00    +0.000 OA
ATOM      2  N   UNL     1     -72.565 -59.395 -26.114  0.00  0.00    +0.000 N 
ATOM      3  C   UNL     1     -72.055 -60.041 -27.227  0.00  0.00    +0.000 C 
ATOM      4  H   UNL     1     -73.517 -59.056 -26.236  0.00  0.00    +0.000 HD
ENDROOT
BRANCH   2   5
ATOM      5  CA  UNL     1     -72.239 -59.892 -24.777  0.00  0.00    +0.000 C 
BRANCH   5   8
ATOM      6  O   UNL     1     -74.607 -60.369 -24.704  0.00  0.00    +0.000 OA
ATOM      7  N   UNL     1     -73.361 -61.785 -23.523  0.00  0.00    +0.000 N 
ATOM      8  C   UNL     1     -73.474 -60.701 -24.339  0.00  0.00    +0.000 C 
ATOM      9  H   UNL     1     -74.266 -62.214 -23.360  0.00  0.00    +0.000 HD
BRANCH   7  10
ATOM     10  CA  UNL     1     -72.185 -62.605 -23.231  0.00  0.00    +0.000 C 
BRANCH  10  12
ATOM     11  O   UNL     1     -72.258 -63.842 -25.328  0.00  0.00    +0.000 OA
ATOM     12  C   UNL     1     -72.191 -63.861 -24.102  0.00  0.00    +0.000 C 
ENDBRANCH  10  12
BRANCH  10  13
ATOM     13  CB  UNL     1     -72.037 -62.896 -21.730  0.00  0.00    +0.000 C 
BRANCH  13  14
ATOM     14  CG  UNL     1     -70.715 -62.477 -21.050  0.00  0.00    +0.000 C 
ATOM     15  CD1 UNL     1     -70.815 -62.376 -19.529  0.00  0.00    +0.000 C 
ATOM     16  CD2 UNL     1     -69.613 -63.475 -21.424  0.00  0.00    +0.000 C 
ENDBRANCH  13  14
ENDBRANCH  10  13
ENDBRANCH   7  10
ENDBRANCH   5   8
BRANCH   5  17
ATOM     17  CB  UNL     1     -72.008 -58.713 -23.821  0.00  0.00    +0.000 C 
BRANCH  17  18
ATOM     18  CG  UNL     1     -73.271 -57.887 -23.505  0.00  0.00    +0.000 C 
ATOM     19  CD1 UNL     1     -73.201 -57.223 -22.129  0.00  0.00    +0.000 C 
ATOM     20  CD2 UNL     1     -73.467 -56.811 -24.578  0.00  0.00    +0.000 C 
ENDBRANCH  17  18
ENDBRANCH   5  17
ENDBRANCH   2   5
BRANCH   3  21
ATOM     21  CA  UNL     1     -72.652 -59.574 -28.577  0.00  0.00    +0.000 C 
BRANCH  21  23
ATOM     22  O   UNL     1     -72.082 -56.858 -28.060  0.00  0.00    +0.000 OA
ATOM     23  N   UNL     1     -71.672 -58.747 -29.294  0.00  0.00    +0.000 N 
ATOM     24  C   ACE A   0     -71.508 -57.425 -28.976  0.00  0.00    +0.000 C 
ATOM     25  H   UNL     1     -71.442 -59.010 -30.241  0.00  0.00    +0.000 HD
BRANCH  24  26
ATOM     26  O   UNL     1     -70.718 -56.767 -29.858  0.00  0.00    +0.000 OA
BRANCH  26  27
ATOM     27  C   UNL     1     -71.284 -56.558 -31.157  0.00  0.00    +0.000 C 
BRANCH  27  28
ATOM     28  C   UNL     1     -70.240 -56.826 -32.214  0.00  0.00    +0.000 A 
ATOM     29  C   UNL     1     -70.494 -56.519 -33.558  0.00  0.00    +0.000 A 
ATOM     30  C   UNL     1     -69.024 -57.442 -31.881  0.00  0.00    +0.000 A 
ATOM     31  C   UNL     1     -69.543 -56.796 -34.542  0.00  0.00    +0.000 A 
ATOM     32  C   UNL     1     -68.074 -57.719 -32.865  0.00  0.00    +0.000 A 
ATOM     33  C   UNL     1     -68.333 -57.395 -34.195  0.00  0.00    +0.000 A 
ENDBRANCH  27  28
ENDBRANCH  26  27
ENDBRANCH  24  26
ENDBRANCH  21  23
BRANCH  21  34
ATOM     34  CB  UNL     1     -73.067 -60.769 -29.454  0.00  0.00    +0.000 C 
BRANCH  34  35
ATOM     35  CG  UNL     1     -74.546 -60.804 -29.893  0.00  0.00    +0.000 C 
ATOM     36  CD1 UNL     1     -75.031 -62.221 -30.200  0.00  0.00    +0.000 C 
ATOM     37  CD2 UNL     1     -75.419 -60.190 -28.794  0.00  0.00    +0.000 C 
ENDBRANCH  34  35
ENDBRANCH  21  34
ENDBRANCH   3  21
TORSDOF 15
ENDMDL
MODEL 9
REMARK VINA RESULT:      -4.6     31.256     37.396
REMARK  Name = 
REMARK  21 active torsions:
REMARK  status: ('A' for Active; 'I' for Inactive)
REMARK    1  A    between atoms: O_3  and  C_27
REMARK    2  A    between atoms: O_3  and  C_28
REMARK    3  A    between atoms: N_6  and  CA_9
REMARK    4  A    between atoms: N_7  and  CA_15
REMARK    5  A    between atoms: N_8  and  CA_12
REMARK    6  A    between atoms: CA_9  and  CB_10
REMARK    7  A    between atoms: CA_9  and  C_16
REMARK    8  A    between atoms: CB_10  and  CG_11
REMARK    9  A    between atoms: CG_11  and  CD1_20
REMARK   10  A    between atoms: CG_11  and  CD2_21
REMARK   11  A    between atoms: CA_12  and  CB_13
REMARK   12  A    between atoms: CA_12  and  C_18
REMARK   13  A    between atoms: CB_13  and  CG_14
REMARK   14  A    between atoms: CG_14  and  CD1_22
REMARK   15  A    between atoms: CG_14  and  CD2_23
REMARK   16  A    between atoms: CA_15  and  CB_17
REMARK   17  A    between atoms: CA_15  and  C_26
REMARK   18  A    between atoms: CB_17  and  CG_19
REMARK   19  A    between atoms: CG_19  and  CD1_24
REMARK   20  A    between atoms: CG_19  and  CD2_25
REMARK   21  A    between atoms: C_28  and  C_29
REMARK                            x       y       z     vdW  Elec       q    Type
REMARK                         _______ _______ _______ _____ _____    ______ ____
ROOT
ATOM      1  O   UNL     1     -55.039 -57.370 -59.974  0.00  0.00    +0.000 OA
ATOM      2  N   UNL     1     -56.953 -57.178 -61.199  0.00  0.00    +0.000 N 
ATOM      3  C   UNL     1     -55.592 -57.398 -61.069  0.00  0.00    +0.000 C 
ATOM      4  H   UNL     1     -57.379 -57.685 -61.972  0.00  0.00    +0.000 HD
ENDROOT
BRANCH   2   5
ATOM      5  CA  UNL     1     -57.781 -57.043 -60.000  0.00  0.00    +0.000 C 
BRANCH   5   8
ATOM      6  O   UNL     1     -58.065 -59.442 -60.021  0.00  0.00    +0.000 OA
ATOM      7  N   UNL     1     -57.495 -58.615 -58.036  0.00  0.00    +0.000 N 
ATOM      8  C   UNL     1     -57.782 -58.441 -59.355  0.00  0.00    +0.000 C 
ATOM      9  H   UNL     1     -57.511 -59.598 -57.786  0.00  0.00    +0.000 HD
BRANCH   7  10
ATOM     10  CA  UNL     1     -56.801 -57.716 -57.114  0.00  0.00    +0.000 C 
BRANCH  10  12
ATOM     11  O   UNL     1     -54.972 -59.261 -56.665  0.00  0.00    +0.000 OA
ATOM     12  C   UNL     1     -55.841 -58.511 -56.228  0.00  0.00    +0.000 C 
ENDBRANCH  10  12
BRANCH  10  13
ATOM     13  CB  UNL     1     -57.776 -56.828 -56.324  0.00  0.00    +0.000 C 
BRANCH  13  14
ATOM     14  CG  UNL     1     -59.078 -57.481 -55.811  0.00  0.00    +0.000 C 
ATOM     15  CD1 UNL     1     -59.076 -57.751 -54.307  0.00  0.00    +0.000 C 
ATOM     16  CD2 UNL     1     -60.270 -56.586 -56.167  0.00  0.00    +0.000 C 
ENDBRANCH  13  14
ENDBRANCH  10  13
ENDBRANCH   7  10
ENDBRANCH   5   8
BRANCH   5  17
ATOM     17  CB  UNL     1     -59.209 -56.637 -60.393  0.00  0.00    +0.000 C 
BRANCH  17  18
ATOM     18  CG  UNL     1     -59.737 -55.375 -59.682  0.00  0.00    +0.000 C 
ATOM     19  CD1 UNL     1     -59.374 -54.092 -60.431  0.00  0.00    +0.000 C 
ATOM     20  CD2 UNL     1     -61.259 -55.464 -59.536  0.00  0.00    +0.000 C 
ENDBRANCH  17  18
ENDBRANCH   5  17
ENDBRANCH   2   5
BRANCH   3  21
ATOM     21  CA  UNL     1     -54.865 -57.755 -62.388  0.00  0.00    +0.000 C 
BRANCH  21  23
ATOM     22  O   UNL     1     -55.305 -60.055 -63.965  0.00  0.00    +0.000 OA
ATOM     23  N   UNL     1     -55.844 -57.880 -63.477  0.00  0.00    +0.000 N 
ATOM     24  C   ACE A   0     -55.942 -59.041 -64.198  0.00  0.00    +0.000 C 
ATOM     25  H   UNL     1     -56.127 -57.034 -63.950  0.00  0.00    +0.000 HD
BRANCH  24  26
ATOM     26  O   UNL     1     -56.745 -58.918 -65.282  0.00  0.00    +0.000 OA
BRANCH  26  27
ATOM     27  C   UNL     1     -56.251 -59.515 -66.488  0.00  0.00    +0.000 C 
BRANCH  27  28
ATOM     28  C   UNL     1     -55.539 -58.473 -67.315  0.00  0.00    +0.000 A 
ATOM     29  C   UNL     1     -54.207 -58.135 -67.039  0.00  0.00    +0.000 A 
ATOM     30  C   UNL     1     -56.214 -57.783 -68.333  0.00  0.00    +0.000 A 
ATOM     31  C   UNL     1     -53.556 -57.148 -67.782  0.00  0.00    +0.000 A 
ATOM     32  C   UNL     1     -55.563 -56.796 -69.076  0.00  0.00    +0.000 A 
ATOM     33  C   UNL     1     -54.234 -56.480 -68.800  0.00  0.00    +0.000 A 
ENDBRANCH  27  28
ENDBRANCH  26  27
ENDBRANCH  24  26
ENDBRANCH  21  23
BRANCH  21  34
ATOM     34  CB  UNL     1     -53.810 -56.697 -62.755  0.00  0.00    +0.000 C 
BRANCH  34  35
ATOM     35  CG  UNL     1     -54.352 -55.376 -63.339  0.00  0.00    +0.000 C 
ATOM     36  CD1 UNL     1     -54.095 -54.181 -62.420  0.00  0.00    +0.000 C 
ATOM     37  CD2 UNL     1     -53.708 -55.119 -64.706  0.00  0.00    +0.000 C 
ENDBRANCH  34  35
ENDBRANCH  21  34
ENDBRANCH   3  21
TORSDOF 15
ENDMDL
