MODEL 1
REMARK VINA RESULT:      -4.9      0.000      0.000
REMARK  Name = Monobenzone.pdbqt.pdb
REMARK  4 active torsions:
REMARK  status: ('A' for Active; 'I' for Inactive)
REMARK    1  A    between atoms: C_1  and  O_7
REMARK    2  A    between atoms: C_6  and  O_15
REMARK    3  A    between atoms: O_7  and  C_8
REMARK    4  A    between atoms: C_8  and  C_9
REMARK                            x       y       z     vdW  Elec       q    Type
REMARK                         _______ _______ _______ _____ _____    ______ ____
ROOT
ATOM      1  C   UNL     1     -67.567 -56.797 -39.155  0.00  0.00    +0.000 A 
ATOM      2  C   UNL     1     -67.133 -56.771 -40.483  0.00  0.00    +0.000 A 
ATOM      3  C   UNL     1     -67.670 -55.603 -38.438  0.00  0.00    +0.000 A 
ATOM      4  C   UNL     1     -66.806 -55.562 -41.091  0.00  0.00    +0.000 A 
ATOM      5  C   UNL     1     -67.343 -54.392 -39.041  0.00  0.00    +0.000 A 
ATOM      6  C   UNL     1     -66.913 -54.381 -40.364  0.00  0.00    +0.000 A 
ENDROOT
BRANCH   6   7
ATOM      7  O   UNL     1     -66.599 -53.182 -40.934  0.00  0.00    +0.000 OA
ATOM      8  H   UNL     1     -66.526 -53.310 -41.895  0.00  0.00    +0.000 HD
ENDBRANCH   6   7
BRANCH   1   9
ATOM      9  O   UNL     1     -67.912 -57.936 -38.472  0.00  0.00    +0.000 OA
BRANCH   9  10
ATOM     10  C   UNL     1     -68.100 -57.770 -37.166  0.00  0.00    +0.000 C 
BRANCH  10  11
ATOM     11  C   UNL     1     -68.287 -57.589 -35.763  0.00  0.00    +0.000 A 
ATOM     12  C   UNL     1     -67.287 -57.979 -34.875  0.00  0.00    +0.000 A 
ATOM     13  C   UNL     1     -67.472 -57.807 -33.505  0.00  0.00    +0.000 A 
ATOM     14  C   UNL     1     -68.653 -57.244 -33.027  0.00  0.00    +0.000 A 
ATOM     15  C   UNL     1     -69.651 -56.854 -33.917  0.00  0.00    +0.000 A 
ATOM     16  C   UNL     1     -69.468 -57.026 -35.287  0.00  0.00    +0.000 A 
ENDBRANCH  10  11
ENDBRANCH   9  10
ENDBRANCH   1   9
TORSDOF 4
ENDMDL
MODEL 2
REMARK VINA RESULT:      -4.9     22.165     24.074
REMARK  Name = Monobenzone.pdbqt.pdb
REMARK  4 active torsions:
REMARK  status: ('A' for Active; 'I' for Inactive)
REMARK    1  A    between atoms: C_1  and  O_7
REMARK    2  A    between atoms: C_6  and  O_15
REMARK    3  A    between atoms: O_7  and  C_8
REMARK    4  A    between atoms: C_8  and  C_9
REMARK                            x       y       z     vdW  Elec       q    Type
REMARK                         _______ _______ _______ _____ _____    ______ ____
ROOT
ATOM      1  C   UNL     1     -63.442 -47.037 -60.129  0.00  0.00    +0.000 A 
ATOM      2  C   UNL     1     -62.127 -47.049 -60.601  0.00  0.00    +0.000 A 
ATOM      3  C   UNL     1     -63.715 -46.530 -58.857  0.00  0.00    +0.000 A 
ATOM      4  C   UNL     1     -61.093 -46.557 -59.810  0.00  0.00    +0.000 A 
ATOM      5  C   UNL     1     -62.684 -46.037 -58.061  0.00  0.00    +0.000 A 
ATOM      6  C   UNL     1     -61.380 -46.054 -58.545  0.00  0.00    +0.000 A 
ENDROOT
BRANCH   6   7
ATOM      7  O   UNL     1     -60.386 -45.566 -57.748  0.00  0.00    +0.000 OA
ATOM      8  H   UNL     1     -60.453 -45.996 -56.878  0.00  0.00    +0.000 HD
ENDBRANCH   6   7
BRANCH   1   9
ATOM      9  O   UNL     1     -64.525 -47.499 -60.834  0.00  0.00    +0.000 OA
BRANCH   9  10
ATOM     10  C   UNL     1     -65.660 -47.556 -60.142  0.00  0.00    +0.000 C 
BRANCH  10  11
ATOM     11  C   UNL     1     -66.875 -47.601 -59.396  0.00  0.00    +0.000 A 
ATOM     12  C   UNL     1     -66.914 -48.271 -58.176  0.00  0.00    +0.000 A 
ATOM     13  C   UNL     1     -68.103 -48.319 -57.449  0.00  0.00    +0.000 A 
ATOM     14  C   UNL     1     -69.247 -47.698 -57.944  0.00  0.00    +0.000 A 
ATOM     15  C   UNL     1     -69.204 -47.027 -59.165  0.00  0.00    +0.000 A 
ATOM     16  C   UNL     1     -68.018 -46.978 -59.892  0.00  0.00    +0.000 A 
ENDBRANCH  10  11
ENDBRANCH   9  10
ENDBRANCH   1   9
TORSDOF 4
ENDMDL
MODEL 3
REMARK VINA RESULT:      -4.9     18.233     21.807
REMARK  Name = Monobenzone.pdbqt.pdb
REMARK  4 active torsions:
REMARK  status: ('A' for Active; 'I' for Inactive)
REMARK    1  A    between atoms: C_1  and  O_7
REMARK    2  A    between atoms: C_6  and  O_15
REMARK    3  A    between atoms: O_7  and  C_8
REMARK    4  A    between atoms: C_8  and  C_9
REMARK                            x       y       z     vdW  Elec       q    Type
REMARK                         _______ _______ _______ _____ _____    ______ ____
ROOT
ATOM      1  C   UNL     1     -63.967 -46.535 -58.187  0.00  0.00    +0.000 A 
ATOM      2  C   UNL     1     -64.128 -46.828 -59.544  0.00  0.00    +0.000 A 
ATOM      3  C   UNL     1     -62.685 -46.360 -57.665  0.00  0.00    +0.000 A 
ATOM      4  C   UNL     1     -63.016 -46.944 -60.374  0.00  0.00    +0.000 A 
ATOM      5  C   UNL     1     -61.569 -46.476 -58.490  0.00  0.00    +0.000 A 
ATOM      6  C   UNL     1     -61.744 -46.767 -59.839  0.00  0.00    +0.000 A 
ENDROOT
BRANCH   6   7
ATOM      7  O   UNL     1     -60.637 -46.875 -60.629  0.00  0.00    +0.000 OA
ATOM      8  H   UNL     1     -59.894 -46.441 -60.175  0.00  0.00    +0.000 HD
ENDBRANCH   6   7
BRANCH   1   9
ATOM      9  O   UNL     1     -65.000 -46.401 -57.294  0.00  0.00    +0.000 OA
BRANCH   9  10
ATOM     10  C   UNL     1     -64.761 -46.900 -56.083  0.00  0.00    +0.000 C 
BRANCH  10  11
ATOM     11  C   UNL     1     -64.503 -47.420 -54.781  0.00  0.00    +0.000 A 
ATOM     12  C   UNL     1     -64.335 -46.548 -53.708  0.00  0.00    +0.000 A 
ATOM     13  C   UNL     1     -64.077 -47.055 -52.436  0.00  0.00    +0.000 A 
ATOM     14  C   UNL     1     -63.989 -48.432 -52.240  0.00  0.00    +0.000 A 
ATOM     15  C   UNL     1     -64.158 -49.302 -53.315  0.00  0.00    +0.000 A 
ATOM     16  C   UNL     1     -64.415 -48.796 -54.587  0.00  0.00    +0.000 A 
ENDBRANCH  10  11
ENDBRANCH   9  10
ENDBRANCH   1   9
TORSDOF 4
ENDMDL
MODEL 4
REMARK VINA RESULT:      -4.9      1.917      6.194
REMARK  Name = Monobenzone.pdbqt.pdb
REMARK  4 active torsions:
REMARK  status: ('A' for Active; 'I' for Inactive)
REMARK    1  A    between atoms: C_1  and  O_7
REMARK    2  A    between atoms: C_6  and  O_15
REMARK    3  A    between atoms: O_7  and  C_8
REMARK    4  A    between atoms: C_8  and  C_9
REMARK                            x       y       z     vdW  Elec       q    Type
REMARK                         _______ _______ _______ _____ _____    ______ ____
ROOT
ATOM      1  C   UNL     1     -69.029 -56.980 -35.747  0.00  0.00    +0.000 A 
ATOM      2  C   UNL     1     -67.717 -57.458 -35.681  0.00  0.00    +0.000 A 
ATOM      3  C   UNL     1     -69.761 -56.805 -34.572  0.00  0.00    +0.000 A 
ATOM      4  C   UNL     1     -67.142 -57.758 -34.449  0.00  0.00    +0.000 A 
ATOM      5  C   UNL     1     -69.191 -57.104 -33.338  0.00  0.00    +0.000 A 
ATOM      6  C   UNL     1     -67.884 -57.578 -33.286  0.00  0.00    +0.000 A 
ENDROOT
BRANCH   6   7
ATOM      7  O   UNL     1     -67.345 -57.864 -32.066  0.00  0.00    +0.000 OA
ATOM      8  H   UNL     1     -67.596 -58.773 -31.827  0.00  0.00    +0.000 HD
ENDBRANCH   6   7
BRANCH   1   9
ATOM      9  O   UNL     1     -69.680 -56.657 -36.912  0.00  0.00    +0.000 OA
BRANCH   9  10
ATOM     10  C   UNL     1     -68.887 -56.261 -37.904  0.00  0.00    +0.000 C 
BRANCH  10  11
ATOM     11  C   UNL     1     -68.045 -55.845 -38.978  0.00  0.00    +0.000 A 
ATOM     12  C   UNL     1     -67.643 -56.768 -39.941  0.00  0.00    +0.000 A 
ATOM     13  C   UNL     1     -66.817 -56.362 -40.987  0.00  0.00    +0.000 A 
ATOM     14  C   UNL     1     -66.396 -55.037 -41.068  0.00  0.00    +0.000 A 
ATOM     15  C   UNL     1     -66.800 -54.116 -40.104  0.00  0.00    +0.000 A 
ATOM     16  C   UNL     1     -67.626 -54.519 -39.058  0.00  0.00    +0.000 A 
ENDBRANCH  10  11
ENDBRANCH   9  10
ENDBRANCH   1   9
TORSDOF 4
ENDMDL
MODEL 5
REMARK VINA RESULT:      -4.8     34.301     38.115
REMARK  Name = Monobenzone.pdbqt.pdb
REMARK  4 active torsions:
REMARK  status: ('A' for Active; 'I' for Inactive)
REMARK    1  A    between atoms: C_1  and  O_7
REMARK    2  A    between atoms: C_6  and  O_15
REMARK    3  A    between atoms: O_7  and  C_8
REMARK    4  A    between atoms: C_8  and  C_9
REMARK                            x       y       z     vdW  Elec       q    Type
REMARK                         _______ _______ _______ _____ _____    ______ ____
ROOT
ATOM      1  C   UNL     1     -65.533 -61.543 -73.571  0.00  0.00    +0.000 A 
ATOM      2  C   UNL     1     -64.573 -61.870 -72.610  0.00  0.00    +0.000 A 
ATOM      3  C   UNL     1     -66.533 -60.619 -73.264  0.00  0.00    +0.000 A 
ATOM      4  C   UNL     1     -64.611 -61.277 -71.351  0.00  0.00    +0.000 A 
ATOM      5  C   UNL     1     -66.576 -60.023 -72.006  0.00  0.00    +0.000 A 
ATOM      6  C   UNL     1     -65.613 -60.357 -71.059  0.00  0.00    +0.000 A 
ENDROOT
BRANCH   6   7
ATOM      7  O   UNL     1     -65.674 -59.761 -69.833  0.00  0.00    +0.000 OA
ATOM      8  H   UNL     1     -65.851 -60.448 -69.168  0.00  0.00    +0.000 HD
ENDBRANCH   6   7
BRANCH   1   9
ATOM      9  O   UNL     1     -65.577 -62.073 -74.837  0.00  0.00    +0.000 OA
BRANCH   9  10
ATOM     10  C   UNL     1     -65.202 -61.242 -75.805  0.00  0.00    +0.000 C 
BRANCH  10  11
ATOM     11  C   UNL     1     -64.799 -60.362 -76.853  0.00  0.00    +0.000 A 
ATOM     12  C   UNL     1     -63.445 -60.171 -77.115  0.00  0.00    +0.000 A 
ATOM     13  C   UNL     1     -63.052 -59.307 -78.136  0.00  0.00    +0.000 A 
ATOM     14  C   UNL     1     -64.012 -58.640 -78.892  0.00  0.00    +0.000 A 
ATOM     15  C   UNL     1     -65.367 -58.834 -78.628  0.00  0.00    +0.000 A 
ATOM     16  C   UNL     1     -65.761 -59.696 -77.608  0.00  0.00    +0.000 A 
ENDBRANCH  10  11
ENDBRANCH   9  10
ENDBRANCH   1   9
TORSDOF 4
ENDMDL
MODEL 6
REMARK VINA RESULT:      -4.8     29.706     32.762
REMARK  Name = Monobenzone.pdbqt.pdb
REMARK  4 active torsions:
REMARK  status: ('A' for Active; 'I' for Inactive)
REMARK    1  A    between atoms: C_1  and  O_7
REMARK    2  A    between atoms: C_6  and  O_15
REMARK    3  A    between atoms: O_7  and  C_8
REMARK    4  A    between atoms: C_8  and  C_9
REMARK                            x       y       z     vdW  Elec       q    Type
REMARK                         _______ _______ _______ _____ _____    ______ ____
ROOT
ATOM      1  C   UNL     1     -52.263 -55.243 -65.211  0.00  0.00    +0.000 A 
ATOM      2  C   UNL     1     -51.673 -54.018 -64.888  0.00  0.00    +0.000 A 
ATOM      3  C   UNL     1     -53.454 -55.622 -64.590  0.00  0.00    +0.000 A 
ATOM      4  C   UNL     1     -52.268 -53.178 -63.950  0.00  0.00    +0.000 A 
ATOM      5  C   UNL     1     -54.053 -54.786 -63.651  0.00  0.00    +0.000 A 
ATOM      6  C   UNL     1     -53.455 -53.569 -63.339  0.00  0.00    +0.000 A 
ENDROOT
BRANCH   6   7
ATOM      7  O   UNL     1     -54.060 -52.766 -62.417  0.00  0.00    +0.000 OA
ATOM      8  H   UNL     1     -55.010 -52.977 -62.405  0.00  0.00    +0.000 HD
ENDBRANCH   6   7
BRANCH   1   9
ATOM      9  O   UNL     1     -51.752 -56.135 -66.121  0.00  0.00    +0.000 OA
BRANCH   9  10
ATOM     10  C   UNL     1     -52.604 -56.515 -67.070  0.00  0.00    +0.000 C 
BRANCH  10  11
ATOM     11  C   UNL     1     -53.507 -56.917 -68.098  0.00  0.00    +0.000 A 
ATOM     12  C   UNL     1     -53.018 -57.244 -69.361  0.00  0.00    +0.000 A 
ATOM     13  C   UNL     1     -53.901 -57.631 -70.367  0.00  0.00    +0.000 A 
ATOM     14  C   UNL     1     -55.268 -57.691 -70.108  0.00  0.00    +0.000 A 
ATOM     15  C   UNL     1     -55.755 -57.364 -68.844  0.00  0.00    +0.000 A 
ATOM     16  C   UNL     1     -54.874 -56.976 -67.838  0.00  0.00    +0.000 A 
ENDBRANCH  10  11
ENDBRANCH   9  10
ENDBRANCH   1   9
TORSDOF 4
ENDMDL
MODEL 7
REMARK VINA RESULT:      -4.6     27.730     31.340
REMARK  Name = Monobenzone.pdbqt.pdb
REMARK  4 active torsions:
REMARK  status: ('A' for Active; 'I' for Inactive)
REMARK    1  A    between atoms: C_1  and  O_7
REMARK    2  A    between atoms: C_6  and  O_15
REMARK    3  A    between atoms: O_7  and  C_8
REMARK    4  A    between atoms: C_8  and  C_9
REMARK                            x       y       z     vdW  Elec       q    Type
REMARK                         _______ _______ _______ _____ _____    ______ ____
ROOT
ATOM      1  C   UNL     1     -57.312 -59.599 -64.713  0.00  0.00    +0.000 A 
ATOM      2  C   UNL     1     -57.999 -60.185 -65.779  0.00  0.00    +0.000 A 
ATOM      3  C   UNL     1     -57.984 -59.336 -63.519  0.00  0.00    +0.000 A 
ATOM      4  C   UNL     1     -59.347 -60.508 -65.652  0.00  0.00    +0.000 A 
ATOM      5  C   UNL     1     -59.333 -59.656 -63.387  0.00  0.00    +0.000 A 
ATOM      6  C   UNL     1     -60.004 -60.240 -64.456  0.00  0.00    +0.000 A 
ENDROOT
BRANCH   6   7
ATOM      7  O   UNL     1     -61.325 -60.546 -64.303  0.00  0.00    +0.000 OA
ATOM      8  H   UNL     1     -61.391 -61.458 -63.972  0.00  0.00    +0.000 HD
ENDBRANCH   6   7
BRANCH   1   9
ATOM      9  O   UNL     1     -55.986 -59.246 -64.744  0.00  0.00    +0.000 OA
BRANCH   9  10
ATOM     10  C   UNL     1     -55.595 -58.636 -65.860  0.00  0.00    +0.000 C 
BRANCH  10  11
ATOM     11  C   UNL     1     -55.172 -57.997 -67.063  0.00  0.00    +0.000 A 
ATOM     12  C   UNL     1     -53.910 -57.411 -67.129  0.00  0.00    +0.000 A 
ATOM     13  C   UNL     1     -53.499 -56.782 -68.302  0.00  0.00    +0.000 A 
ATOM     14  C   UNL     1     -54.349 -56.740 -69.404  0.00  0.00    +0.000 A 
ATOM     15  C   UNL     1     -55.611 -57.327 -69.336  0.00  0.00    +0.000 A 
ATOM     16  C   UNL     1     -56.023 -57.956 -68.164  0.00  0.00    +0.000 A 
ENDBRANCH  10  11
ENDBRANCH   9  10
ENDBRANCH   1   9
TORSDOF 4
ENDMDL
MODEL 8
REMARK VINA RESULT:      -4.6     35.258     38.639
REMARK  Name = Monobenzone.pdbqt.pdb
REMARK  4 active torsions:
REMARK  status: ('A' for Active; 'I' for Inactive)
REMARK    1  A    between atoms: C_1  and  O_7
REMARK    2  A    between atoms: C_6  and  O_15
REMARK    3  A    between atoms: O_7  and  C_8
REMARK    4  A    between atoms: C_8  and  C_9
REMARK                            x       y       z     vdW  Elec       q    Type
REMARK                         _______ _______ _______ _____ _____    ______ ____
ROOT
ATOM      1  C   UNL     1     -64.653 -61.320 -77.232  0.00  0.00    +0.000 A 
ATOM      2  C   UNL     1     -63.861 -60.209 -76.931  0.00  0.00    +0.000 A 
ATOM      3  C   UNL     1     -64.347 -62.106 -78.343  0.00  0.00    +0.000 A 
ATOM      4  C   UNL     1     -62.771 -59.886 -77.734  0.00  0.00    +0.000 A 
ATOM      5  C   UNL     1     -63.258 -61.787 -79.150  0.00  0.00    +0.000 A 
ATOM      6  C   UNL     1     -62.478 -60.679 -78.838  0.00  0.00    +0.000 A 
ENDROOT
BRANCH   6   7
ATOM      7  O   UNL     1     -61.415 -60.386 -79.643  0.00  0.00    +0.000 OA
ATOM      8  H   UNL     1     -61.554 -60.820 -80.502  0.00  0.00    +0.000 HD
ENDBRANCH   6   7
BRANCH   1   9
ATOM      9  O   UNL     1     -65.745 -61.716 -76.501  0.00  0.00    +0.000 OA
BRANCH   9  10
ATOM     10  C   UNL     1     -65.698 -61.400 -75.209  0.00  0.00    +0.000 C 
BRANCH  10  11
ATOM     11  C   UNL     1     -65.654 -61.076 -73.821  0.00  0.00    +0.000 A 
ATOM     12  C   UNL     1     -64.671 -61.638 -73.009  0.00  0.00    +0.000 A 
ATOM     13  C   UNL     1     -64.632 -61.325 -71.652  0.00  0.00    +0.000 A 
ATOM     14  C   UNL     1     -65.573 -60.453 -71.110  0.00  0.00    +0.000 A 
ATOM     15  C   UNL     1     -66.554 -59.892 -71.925  0.00  0.00    +0.000 A 
ATOM     16  C   UNL     1     -66.596 -60.203 -73.281  0.00  0.00    +0.000 A 
ENDBRANCH  10  11
ENDBRANCH   9  10
ENDBRANCH   1   9
TORSDOF 4
ENDMDL
MODEL 9
REMARK VINA RESULT:      -4.5      8.842      9.692
REMARK  Name = Monobenzone.pdbqt.pdb
REMARK  4 active torsions:
REMARK  status: ('A' for Active; 'I' for Inactive)
REMARK    1  A    between atoms: C_1  and  O_7
REMARK    2  A    between atoms: C_6  and  O_15
REMARK    3  A    between atoms: O_7  and  C_8
REMARK    4  A    between atoms: C_8  and  C_9
REMARK                            x       y       z     vdW  Elec       q    Type
REMARK                         _______ _______ _______ _____ _____    ______ ____
ROOT
ATOM      1  C   UNL     1     -65.706 -46.775 -36.016  0.00  0.00    +0.000 A 
ATOM      2  C   UNL     1     -64.388 -47.155 -35.751  0.00  0.00    +0.000 A 
ATOM      3  C   UNL     1     -66.160 -46.732 -37.335  0.00  0.00    +0.000 A 
ATOM      4  C   UNL     1     -63.530 -47.490 -36.795  0.00  0.00    +0.000 A 
ATOM      5  C   UNL     1     -65.307 -47.066 -38.383  0.00  0.00    +0.000 A 
ATOM      6  C   UNL     1     -63.997 -47.443 -38.104  0.00  0.00    +0.000 A 
ENDROOT
BRANCH   6   7
ATOM      7  O   UNL     1     -63.179 -47.766 -39.147  0.00  0.00    +0.000 OA
ATOM      8  H   UNL     1     -62.722 -48.597 -38.931  0.00  0.00    +0.000 HD
ENDBRANCH   6   7
BRANCH   1   9
ATOM      9  O   UNL     1     -66.623 -46.428 -35.056  0.00  0.00    +0.000 OA
BRANCH   9  10
ATOM     10  C   UNL     1     -66.543 -47.130 -33.928  0.00  0.00    +0.000 C 
BRANCH  10  11
ATOM     11  C   UNL     1     -66.470 -47.873 -32.712  0.00  0.00    +0.000 A 
ATOM     12  C   UNL     1     -67.167 -49.073 -32.590  0.00  0.00    +0.000 A 
ATOM     13  C   UNL     1     -67.100 -49.796 -31.401  0.00  0.00    +0.000 A 
ATOM     14  C   UNL     1     -66.337 -49.318 -30.339  0.00  0.00    +0.000 A 
ATOM     15  C   UNL     1     -65.640 -48.118 -30.463  0.00  0.00    +0.000 A 
ATOM     16  C   UNL     1     -65.706 -47.394 -31.651  0.00  0.00    +0.000 A 
ENDBRANCH  10  11
ENDBRANCH   9  10
ENDBRANCH   1   9
TORSDOF 4
ENDMDL
