MODEL 1
REMARK VINA RESULT:      -5.9      0.000      0.000
REMARK  Name = OTSSP167.pdbqt.pdb
REMARK  7 active torsions:
REMARK  status: ('A' for Active; 'I' for Inactive)
REMARK    1  A    between atoms: C_5  and  N_19
REMARK    2  A    between atoms: C_7  and  C_31
REMARK    3  A    between atoms: C_11  and  C_13
REMARK    4  A    between atoms: C_18  and  O_34
REMARK    5  A    between atoms: N_19  and  C_21
REMARK    6  A    between atoms: C_24  and  C_27
REMARK    7  A    between atoms: C_27  and  N_28
REMARK                            x       y       z     vdW  Elec       q    Type
REMARK                         _______ _______ _______ _____ _____    ______ ____
ROOT
ATOM      1  N   UNL     1     -69.958 -56.329 -34.728  0.00  0.00    +0.000 NA
ATOM      2  N   UNL     1     -72.632 -54.658 -32.881  0.00  0.00    +0.000 NA
ATOM      3  C   UNL     1     -70.235 -56.027 -32.327  0.00  0.00    +0.000 A 
ATOM      4  C   UNL     1     -70.657 -55.843 -33.671  0.00  0.00    +0.000 A 
ATOM      5  C   UNL     1     -71.047 -55.511 -31.296  0.00  0.00    +0.000 A 
ATOM      6  C   UNL     1     -71.870 -55.151 -33.870  0.00  0.00    +0.000 A 
ATOM      7  C   UNL     1     -72.210 -54.848 -31.617  0.00  0.00    +0.000 A 
ATOM      8  C   UNL     1     -72.296 -54.976 -35.175  0.00  0.00    +0.000 A 
ATOM      9  C   UNL     1     -70.394 -56.135 -35.996  0.00  0.00    +0.000 A 
ATOM     10  C   UNL     1     -71.571 -55.459 -36.254  0.00  0.00    +0.000 A 
ENDROOT
BRANCH   9  13
ATOM     11 CL   UNL     1     -68.254 -55.446 -40.648  0.00  0.00    +0.000 Cl
ATOM     12 CL   UNL     1     -67.485 -60.016 -37.782  0.00  0.00    +0.000 Cl
ATOM     13  C   UNL     1     -69.540 -56.668 -37.061  0.00  0.00    +0.000 A 
ATOM     14  C   UNL     1     -68.957 -57.938 -36.972  0.00  0.00    +0.000 A 
ATOM     15  C   UNL     1     -69.288 -55.922 -38.220  0.00  0.00    +0.000 A 
ATOM     16  C   UNL     1     -68.493 -56.420 -39.249  0.00  0.00    +0.000 A 
ATOM     17  C   UNL     1     -68.154 -58.444 -37.994  0.00  0.00    +0.000 A 
ATOM     18  C   UNL     1     -67.919 -57.686 -39.141  0.00  0.00    +0.000 A 
BRANCH  18  19
ATOM     19  O   UNL     1     -67.133 -58.190 -40.144  0.00  0.00    +0.000 OA
ATOM     20  H   UNL     1     -67.425 -57.799 -40.989  0.00  0.00    +0.000 HD
ENDBRANCH  18  19
ENDBRANCH   9  13
BRANCH   5  21
ATOM     21  C   UNL     1     -70.738 -55.680 -29.878  0.00  0.00    +0.000 C 
ATOM     22  O   UNL     1     -69.857 -55.087 -29.278  0.00  0.00    +0.000 OA
ATOM     23  C   UNL     1     -71.441 -56.650 -28.978  0.00  0.00    +0.000 C 
ENDBRANCH   5  21
BRANCH   3  24
ATOM     24  N   UNL     1     -68.977 -56.617 -31.979  0.00  0.00    +0.000 N 
ATOM     25  H   UNL     1     -68.431 -56.081 -31.298  0.00  0.00    +0.000 HD
BRANCH  24  26
ATOM     26  C   UNL     1     -68.623 -57.936 -32.043  0.00  0.00    +0.000 A 
ATOM     27  C   UNL     1     -67.376 -58.261 -32.688  0.00  0.00    +0.000 A 
ATOM     28  C   UNL     1     -67.125 -59.457 -33.643  0.00  0.00    +0.000 A 
ATOM     29  C   UNL     1     -68.123 -60.423 -34.036  0.00  0.00    +0.000 A 
ATOM     30  C   UNL     1     -69.378 -60.085 -33.413  0.00  0.00    +0.000 A 
ATOM     31  C   UNL     1     -69.624 -58.889 -32.461  0.00  0.00    +0.000 A 
BRANCH  29  32
ATOM     32  C   UNL     1     -67.878 -61.590 -34.793  0.00  0.00    +0.000 C 
BRANCH  32  33
ATOM     33  N   UNL     1     -67.622 -62.800 -35.554  0.00  0.00    +0.000 NA
ATOM     34  C   UNL     1     -68.890 -63.237 -36.115  0.00  0.00    +0.000 C 
ATOM     35  C   UNL     1     -67.197 -63.823 -34.613  0.00  0.00    +0.000 C 
ENDBRANCH  32  33
ENDBRANCH  29  32
ENDBRANCH  24  26
ENDBRANCH   3  24
TORSDOF 7
ENDMDL
MODEL 2
REMARK VINA RESULT:      -5.6     17.169     20.082
REMARK  Name = OTSSP167.pdbqt.pdb
REMARK  7 active torsions:
REMARK  status: ('A' for Active; 'I' for Inactive)
REMARK    1  A    between atoms: C_5  and  N_19
REMARK    2  A    between atoms: C_7  and  C_31
REMARK    3  A    between atoms: C_11  and  C_13
REMARK    4  A    between atoms: C_18  and  O_34
REMARK    5  A    between atoms: N_19  and  C_21
REMARK    6  A    between atoms: C_24  and  C_27
REMARK    7  A    between atoms: C_27  and  N_28
REMARK                            x       y       z     vdW  Elec       q    Type
REMARK                         _______ _______ _______ _____ _____    ______ ____
ROOT
ATOM      1  N   UNL     1     -64.129 -53.591 -17.356  0.00  0.00    +0.000 NA
ATOM      2  N   UNL     1     -61.337 -55.519 -18.713  0.00  0.00    +0.000 NA
ATOM      3  C   UNL     1     -62.581 -55.091 -16.224  0.00  0.00    +0.000 A 
ATOM      4  C   UNL     1     -63.076 -54.445 -17.388  0.00  0.00    +0.000 A 
ATOM      5  C   UNL     1     -61.460 -55.937 -16.355  0.00  0.00    +0.000 A 
ATOM      6  C   UNL     1     -62.400 -54.705 -18.599  0.00  0.00    +0.000 A 
ATOM      7  C   UNL     1     -60.887 -56.115 -17.595  0.00  0.00    +0.000 A 
ATOM      8  C   UNL     1     -62.867 -54.072 -19.737  0.00  0.00    +0.000 A 
ATOM      9  C   UNL     1     -64.572 -52.992 -18.488  0.00  0.00    +0.000 A 
ATOM     10  C   UNL     1     -63.954 -53.212 -19.704  0.00  0.00    +0.000 A 
ENDROOT
BRANCH   9  13
ATOM     11 CL   UNL     1     -68.944 -51.155 -20.539  0.00  0.00    +0.000 Cl
ATOM     12 CL   UNL     1     -67.179 -49.558 -15.637  0.00  0.00    +0.000 Cl
ATOM     13  C   UNL     1     -65.741 -52.121 -18.342  0.00  0.00    +0.000 A 
ATOM     14  C   UNL     1     -65.931 -51.327 -17.205  0.00  0.00    +0.000 A 
ATOM     15  C   UNL     1     -66.708 -52.043 -19.353  0.00  0.00    +0.000 A 
ATOM     16  C   UNL     1     -67.816 -51.207 -19.239  0.00  0.00    +0.000 A 
ATOM     17  C   UNL     1     -67.041 -50.490 -17.078  0.00  0.00    +0.000 A 
ATOM     18  C   UNL     1     -67.990 -50.425 -18.098  0.00  0.00    +0.000 A 
BRANCH  18  19
ATOM     19  O   UNL     1     -69.075 -49.599 -17.969  0.00  0.00    +0.000 OA
ATOM     20  H   UNL     1     -69.572 -49.867 -17.173  0.00  0.00    +0.000 HD
ENDBRANCH  18  19
ENDBRANCH   9  13
BRANCH   5  21
ATOM     21  C   UNL     1     -60.837 -56.617 -15.222  0.00  0.00    +0.000 C 
ATOM     22  O   UNL     1     -60.255 -56.060 -14.306  0.00  0.00    +0.000 OA
ATOM     23  C   UNL     1     -60.788 -58.106 -15.064  0.00  0.00    +0.000 C 
ENDBRANCH   5  21
BRANCH   3  24
ATOM     24  N   UNL     1     -63.227 -55.004 -14.949  0.00  0.00    +0.000 N 
ATOM     25  H   UNL     1     -63.357 -54.049 -14.604  0.00  0.00    +0.000 HD
BRANCH  24  26
ATOM     26  C   UNL     1     -64.074 -55.911 -14.374  0.00  0.00    +0.000 A 
ATOM     27  C   UNL     1     -63.760 -56.368 -13.045  0.00  0.00    +0.000 A 
ATOM     28  C   UNL     1     -63.889 -57.823 -12.524  0.00  0.00    +0.000 A 
ATOM     29  C   UNL     1     -64.340 -58.945 -13.312  0.00  0.00    +0.000 A 
ATOM     30  C   UNL     1     -64.631 -58.495 -14.650  0.00  0.00    +0.000 A 
ATOM     31  C   UNL     1     -64.499 -57.040 -15.165  0.00  0.00    +0.000 A 
BRANCH  29  32
ATOM     32  C   UNL     1     -64.592 -60.243 -12.817  0.00  0.00    +0.000 C 
BRANCH  32  33
ATOM     33  N   UNL     1     -64.841 -61.586 -12.322  0.00  0.00    +0.000 NA
ATOM     34  C   UNL     1     -66.157 -61.986 -12.793  0.00  0.00    +0.000 C 
ATOM     35  C   UNL     1     -64.913 -61.507 -10.873  0.00  0.00    +0.000 C 
ENDBRANCH  32  33
ENDBRANCH  29  32
ENDBRANCH  24  26
ENDBRANCH   3  24
TORSDOF 7
ENDMDL
MODEL 3
REMARK VINA RESULT:      -5.5      7.625     12.124
REMARK  Name = OTSSP167.pdbqt.pdb
REMARK  7 active torsions:
REMARK  status: ('A' for Active; 'I' for Inactive)
REMARK    1  A    between atoms: C_5  and  N_19
REMARK    2  A    between atoms: C_7  and  C_31
REMARK    3  A    between atoms: C_11  and  C_13
REMARK    4  A    between atoms: C_18  and  O_34
REMARK    5  A    between atoms: N_19  and  C_21
REMARK    6  A    between atoms: C_24  and  C_27
REMARK    7  A    between atoms: C_27  and  N_28
REMARK                            x       y       z     vdW  Elec       q    Type
REMARK                         _______ _______ _______ _____ _____    ______ ____
ROOT
ATOM      1  N   UNL     1     -73.017 -57.953 -25.514  0.00  0.00    +0.000 NA
ATOM      2  N   UNL     1     -71.650 -61.184 -26.536  0.00  0.00    +0.000 NA
ATOM      3  C   UNL     1     -72.559 -58.810 -27.747  0.00  0.00    +0.000 A 
ATOM      4  C   UNL     1     -72.562 -58.935 -26.332  0.00  0.00    +0.000 A 
ATOM      5  C   UNL     1     -72.095 -59.900 -28.512  0.00  0.00    +0.000 A 
ATOM      6  C   UNL     1     -72.096 -60.155 -25.797  0.00  0.00    +0.000 A 
ATOM      7  C   UNL     1     -71.660 -61.040 -27.873  0.00  0.00    +0.000 A 
ATOM      8  C   UNL     1     -72.106 -60.291 -24.421  0.00  0.00    +0.000 A 
ATOM      9  C   UNL     1     -73.006 -58.109 -24.168  0.00  0.00    +0.000 A 
ATOM     10  C   UNL     1     -72.555 -59.278 -23.586  0.00  0.00    +0.000 A 
ENDROOT
BRANCH   9  13
ATOM     11 CL   UNL     1     -75.729 -53.720 -24.030  0.00  0.00    +0.000 Cl
ATOM     12 CL   UNL     1     -73.091 -55.602 -19.649  0.00  0.00    +0.000 Cl
ATOM     13  C   UNL     1     -73.482 -56.969 -23.382  0.00  0.00    +0.000 A 
ATOM     14  C   UNL     1     -73.132 -56.803 -22.037  0.00  0.00    +0.000 A 
ATOM     15  C   UNL     1     -74.300 -55.989 -23.960  0.00  0.00    +0.000 A 
ATOM     16  C   UNL     1     -74.747 -54.888 -23.233  0.00  0.00    +0.000 A 
ATOM     17  C   UNL     1     -73.579 -55.707 -21.297  0.00  0.00    +0.000 A 
ATOM     18  C   UNL     1     -74.390 -54.742 -21.894  0.00  0.00    +0.000 A 
BRANCH  18  19
ATOM     19  O   UNL     1     -74.822 -53.666 -21.164  0.00  0.00    +0.000 OA
ATOM     20  H   UNL     1     -75.174 -52.998 -21.781  0.00  0.00    +0.000 HD
ENDBRANCH  18  19
ENDBRANCH   9  13
BRANCH   5  21
ATOM     21  C   UNL     1     -72.089 -59.904 -29.973  0.00  0.00    +0.000 C 
ATOM     22  O   UNL     1     -71.503 -59.093 -30.672  0.00  0.00    +0.000 OA
ATOM     23  C   UNL     1     -72.849 -60.886 -30.811  0.00  0.00    +0.000 C 
ENDBRANCH   5  21
BRANCH   3  24
ATOM     24  N   UNL     1     -72.904 -57.596 -28.423  0.00  0.00    +0.000 N 
ATOM     25  H   UNL     1     -73.853 -57.580 -28.808  0.00  0.00    +0.000 HD
BRANCH  24  26
ATOM     26  C   UNL     1     -72.372 -56.351 -28.236  0.00  0.00    +0.000 A 
ATOM     27  C   UNL     1     -73.256 -55.221 -28.366  0.00  0.00    +0.000 A 
ATOM     28  C   UNL     1     -72.923 -53.873 -29.056  0.00  0.00    +0.000 A 
ATOM     29  C   UNL     1     -71.663 -53.558 -29.686  0.00  0.00    +0.000 A 
ATOM     30  C   UNL     1     -70.785 -54.696 -29.581  0.00  0.00    +0.000 A 
ATOM     31  C   UNL     1     -71.124 -56.040 -28.891  0.00  0.00    +0.000 A 
BRANCH  29  32
ATOM     32  C   UNL     1     -71.298 -52.292 -30.196  0.00  0.00    +0.000 C 
BRANCH  32  33
ATOM     33  N   UNL     1     -70.922 -50.984 -30.702  0.00  0.00    +0.000 NA
ATOM     34  C   UNL     1     -71.125 -50.027 -29.627  0.00  0.00    +0.000 C 
ATOM     35  C   UNL     1     -71.861 -50.642 -31.759  0.00  0.00    +0.000 C 
ENDBRANCH  32  33
ENDBRANCH  29  32
ENDBRANCH  24  26
ENDBRANCH   3  24
TORSDOF 7
ENDMDL
MODEL 4
REMARK VINA RESULT:      -5.5     22.280     26.640
REMARK  Name = OTSSP167.pdbqt.pdb
REMARK  7 active torsions:
REMARK  status: ('A' for Active; 'I' for Inactive)
REMARK    1  A    between atoms: C_5  and  N_19
REMARK    2  A    between atoms: C_7  and  C_31
REMARK    3  A    between atoms: C_11  and  C_13
REMARK    4  A    between atoms: C_18  and  O_34
REMARK    5  A    between atoms: N_19  and  C_21
REMARK    6  A    between atoms: C_24  and  C_27
REMARK    7  A    between atoms: C_27  and  N_28
REMARK                            x       y       z     vdW  Elec       q    Type
REMARK                         _______ _______ _______ _____ _____    ______ ____
ROOT
ATOM      1  N   UNL     1     -62.775 -45.446 -58.822  0.00  0.00    +0.000 NA
ATOM      2  N   UNL     1     -64.579 -47.977 -60.742  0.00  0.00    +0.000 NA
ATOM      3  C   UNL     1     -64.969 -46.426 -58.425  0.00  0.00    +0.000 A 
ATOM      4  C   UNL     1     -63.774 -46.289 -59.182  0.00  0.00    +0.000 A 
ATOM      5  C   UNL     1     -65.935 -47.354 -58.865  0.00  0.00    +0.000 A 
ATOM      6  C   UNL     1     -63.648 -47.102 -60.328  0.00  0.00    +0.000 A 
ATOM      7  C   UNL     1     -65.699 -48.089 -60.006  0.00  0.00    +0.000 A 
ATOM      8  C   UNL     1     -62.484 -46.985 -61.066  0.00  0.00    +0.000 A 
ATOM      9  C   UNL     1     -61.649 -45.344 -59.568  0.00  0.00    +0.000 A 
ATOM     10  C   UNL     1     -61.471 -46.109 -60.705  0.00  0.00    +0.000 A 
ENDROOT
BRANCH   9  13
ATOM     11 CL   UNL     1     -58.624 -41.309 -60.692  0.00  0.00    +0.000 Cl
ATOM     12 CL   UNL     1     -58.651 -43.587 -55.742  0.00  0.00    +0.000 Cl
ATOM     13  C   UNL     1     -60.654 -44.372 -59.107  0.00  0.00    +0.000 A 
ATOM     14  C   UNL     1     -60.154 -44.393 -57.800  0.00  0.00    +0.000 A 
ATOM     15  C   UNL     1     -60.156 -43.389 -59.972  0.00  0.00    +0.000 A 
ATOM     16  C   UNL     1     -59.197 -42.469 -59.556  0.00  0.00    +0.000 A 
ATOM     17  C   UNL     1     -59.197 -43.473 -57.371  0.00  0.00    +0.000 A 
ATOM     18  C   UNL     1     -58.713 -42.504 -58.250  0.00  0.00    +0.000 A 
BRANCH  18  19
ATOM     19  O   UNL     1     -57.771 -41.605 -57.824  0.00  0.00    +0.000 OA
ATOM     20  H   UNL     1     -56.934 -42.084 -57.677  0.00  0.00    +0.000 HD
ENDBRANCH  18  19
ENDBRANCH   9  13
BRANCH   5  21
ATOM     21  C   UNL     1     -67.179 -47.613 -58.144  0.00  0.00    +0.000 C 
ATOM     22  O   UNL     1     -68.151 -46.876 -58.139  0.00  0.00    +0.000 OA
ATOM     23  C   UNL     1     -67.404 -48.807 -57.267  0.00  0.00    +0.000 C 
ENDBRANCH   5  21
BRANCH   3  24
ATOM     24  N   UNL     1     -65.279 -45.595 -57.301  0.00  0.00    +0.000 N 
ATOM     25  H   UNL     1     -66.001 -44.892 -57.480  0.00  0.00    +0.000 HD
BRANCH  24  26
ATOM     26  C   UNL     1     -65.116 -45.882 -55.975  0.00  0.00    +0.000 A 
ATOM     27  C   UNL     1     -64.370 -47.068 -55.636  0.00  0.00    +0.000 A 
ATOM     28  C   UNL     1     -64.717 -48.076 -54.510  0.00  0.00    +0.000 A 
ATOM     29  C   UNL     1     -65.860 -47.974 -53.634  0.00  0.00    +0.000 A 
ATOM     30  C   UNL     1     -66.622 -46.803 -53.988  0.00  0.00    +0.000 A 
ATOM     31  C   UNL     1     -66.272 -45.800 -55.115  0.00  0.00    +0.000 A 
BRANCH  29  32
ATOM     32  C   UNL     1     -66.114 -48.804 -52.520  0.00  0.00    +0.000 C 
BRANCH  32  33
ATOM     33  N   UNL     1     -66.393 -49.659 -51.380  0.00  0.00    +0.000 NA
ATOM     34  C   UNL     1     -66.551 -51.014 -51.880  0.00  0.00    +0.000 C 
ATOM     35  C   UNL     1     -67.680 -49.253 -50.839  0.00  0.00    +0.000 C 
ENDBRANCH  32  33
ENDBRANCH  29  32
ENDBRANCH  24  26
ENDBRANCH   3  24
TORSDOF 7
ENDMDL
MODEL 5
REMARK VINA RESULT:      -5.4      4.910      9.966
REMARK  Name = OTSSP167.pdbqt.pdb
REMARK  7 active torsions:
REMARK  status: ('A' for Active; 'I' for Inactive)
REMARK    1  A    between atoms: C_5  and  N_19
REMARK    2  A    between atoms: C_7  and  C_31
REMARK    3  A    between atoms: C_11  and  C_13
REMARK    4  A    between atoms: C_18  and  O_34
REMARK    5  A    between atoms: N_19  and  C_21
REMARK    6  A    between atoms: C_24  and  C_27
REMARK    7  A    between atoms: C_27  and  N_28
REMARK                            x       y       z     vdW  Elec       q    Type
REMARK                         _______ _______ _______ _____ _____    ______ ____
ROOT
ATOM      1  N   UNL     1     -71.430 -57.924 -29.521  0.00  0.00    +0.000 NA
ATOM      2  N   UNL     1     -71.024 -60.222 -32.333  0.00  0.00    +0.000 NA
ATOM      3  C   UNL     1     -70.089 -57.688 -31.539  0.00  0.00    +0.000 A 
ATOM      4  C   UNL     1     -70.978 -58.413 -30.702  0.00  0.00    +0.000 A 
ATOM      5  C   UNL     1     -69.700 -58.269 -32.764  0.00  0.00    +0.000 A 
ATOM      6  C   UNL     1     -71.407 -59.675 -31.168  0.00  0.00    +0.000 A 
ATOM      7  C   UNL     1     -70.184 -59.511 -33.107  0.00  0.00    +0.000 A 
ATOM      8  C   UNL     1     -72.281 -60.385 -30.365  0.00  0.00    +0.000 A 
ATOM      9  C   UNL     1     -72.280 -58.646 -28.750  0.00  0.00    +0.000 A 
ATOM     10  C   UNL     1     -72.730 -59.889 -29.150  0.00  0.00    +0.000 A 
ENDROOT
BRANCH   9  13
ATOM     11 CL   UNL     1     -74.741 -54.819 -26.302  0.00  0.00    +0.000 Cl
ATOM     12 CL   UNL     1     -72.116 -58.745 -23.584  0.00  0.00    +0.000 Cl
ATOM     13  C   UNL     1     -72.671 -58.037 -27.476  0.00  0.00    +0.000 A 
ATOM     14  C   UNL     1     -72.281 -58.583 -26.247  0.00  0.00    +0.000 A 
ATOM     15  C   UNL     1     -73.444 -56.869 -27.447  0.00  0.00    +0.000 A 
ATOM     16  C   UNL     1     -73.810 -56.266 -26.246  0.00  0.00    +0.000 A 
ATOM     17  C   UNL     1     -72.647 -57.990 -25.038  0.00  0.00    +0.000 A 
ATOM     18  C   UNL     1     -73.414 -56.825 -25.032  0.00  0.00    +0.000 A 
BRANCH  18  19
ATOM     19  O   UNL     1     -73.767 -56.246 -23.842  0.00  0.00    +0.000 OA
ATOM     20  H   UNL     1     -74.324 -55.469 -24.032  0.00  0.00    +0.000 HD
ENDBRANCH  18  19
ENDBRANCH   9  13
BRANCH   5  21
ATOM     21  C   UNL     1     -68.829 -57.597 -33.725  0.00  0.00    +0.000 C 
ATOM     22  O   UNL     1     -67.613 -57.543 -33.648  0.00  0.00    +0.000 OA
ATOM     23  C   UNL     1     -69.327 -56.837 -34.916  0.00  0.00    +0.000 C 
ENDBRANCH   5  21
BRANCH   3  24
ATOM     24  N   UNL     1     -69.491 -56.446 -31.150  0.00  0.00    +0.000 N 
ATOM     25  H   UNL     1     -68.477 -56.401 -31.287  0.00  0.00    +0.000 HD
BRANCH  24  26
ATOM     26  C   UNL     1     -70.084 -55.216 -31.075  0.00  0.00    +0.000 A 
ATOM     27  C   UNL     1     -70.223 -54.621 -29.771  0.00  0.00    +0.000 A 
ATOM     28  C   UNL     1     -71.459 -53.844 -29.247  0.00  0.00    +0.000 A 
ATOM     29  C   UNL     1     -72.668 -53.613 -30.000  0.00  0.00    +0.000 A 
ATOM     30  C   UNL     1     -72.542 -54.229 -31.296  0.00  0.00    +0.000 A 
ATOM     31  C   UNL     1     -71.306 -55.005 -31.814  0.00  0.00    +0.000 A 
BRANCH  29  32
ATOM     32  C   UNL     1     -73.743 -52.794 -29.589  0.00  0.00    +0.000 C 
BRANCH  32  33
ATOM     33  N   UNL     1     -74.837 -51.937 -29.165  0.00  0.00    +0.000 NA
ATOM     34  C   UNL     1     -74.531 -51.476 -27.820  0.00  0.00    +0.000 C 
ATOM     35  C   UNL     1     -76.026 -52.767 -29.070  0.00  0.00    +0.000 C 
ENDBRANCH  32  33
ENDBRANCH  29  32
ENDBRANCH  24  26
ENDBRANCH   3  24
TORSDOF 7
ENDMDL
MODEL 6
REMARK VINA RESULT:      -5.3     31.697     36.421
REMARK  Name = OTSSP167.pdbqt.pdb
REMARK  7 active torsions:
REMARK  status: ('A' for Active; 'I' for Inactive)
REMARK    1  A    between atoms: C_5  and  N_19
REMARK    2  A    between atoms: C_7  and  C_31
REMARK    3  A    between atoms: C_11  and  C_13
REMARK    4  A    between atoms: C_18  and  O_34
REMARK    5  A    between atoms: N_19  and  C_21
REMARK    6  A    between atoms: C_24  and  C_27
REMARK    7  A    between atoms: C_27  and  N_28
REMARK                            x       y       z     vdW  Elec       q    Type
REMARK                         _______ _______ _______ _____ _____    ______ ____
ROOT
ATOM      1  N   UNL     1     -61.884 -63.900 -70.727  0.00  0.00    +0.000 NA
ATOM      2  N   UNL     1     -60.435 -67.208 -71.284  0.00  0.00    +0.000 NA
ATOM      3  C   UNL     1     -59.704 -64.771 -70.079  0.00  0.00    +0.000 A 
ATOM      4  C   UNL     1     -60.983 -64.913 -70.681  0.00  0.00    +0.000 A 
ATOM      5  C   UNL     1     -58.825 -65.873 -70.110  0.00  0.00    +0.000 A 
ATOM      6  C   UNL     1     -61.277 -66.163 -71.267  0.00  0.00    +0.000 A 
ATOM      7  C   UNL     1     -59.229 -67.045 -70.710  0.00  0.00    +0.000 A 
ATOM      8  C   UNL     1     -62.516 -66.308 -71.865  0.00  0.00    +0.000 A 
ATOM      9  C   UNL     1     -63.094 -64.074 -71.312  0.00  0.00    +0.000 A 
ATOM     10  C   UNL     1     -63.442 -65.276 -71.897  0.00  0.00    +0.000 A 
ENDROOT
BRANCH   9  13
ATOM     11 CL   UNL     1     -65.955 -60.862 -68.449  0.00  0.00    +0.000 Cl
ATOM     12 CL   UNL     1     -65.744 -60.453 -73.879  0.00  0.00    +0.000 Cl
ATOM     13  C   UNL     1     -64.002 -62.925 -71.268  0.00  0.00    +0.000 A 
ATOM     14  C   UNL     1     -64.420 -62.271 -72.434  0.00  0.00    +0.000 A 
ATOM     15  C   UNL     1     -64.498 -62.447 -70.048  0.00  0.00    +0.000 A 
ATOM     16  C   UNL     1     -65.377 -61.368 -69.990  0.00  0.00    +0.000 A 
ATOM     17  C   UNL     1     -65.295 -61.185 -72.386  0.00  0.00    +0.000 A 
ATOM     18  C   UNL     1     -65.779 -60.728 -71.161  0.00  0.00    +0.000 A 
BRANCH  18  19
ATOM     19  O   UNL     1     -66.641 -59.664 -71.121  0.00  0.00    +0.000 OA
ATOM     20  H   UNL     1     -67.462 -59.951 -70.677  0.00  0.00    +0.000 HD
ENDBRANCH  18  19
ENDBRANCH   9  13
BRANCH   5  21
ATOM     21  C   UNL     1     -57.470 -65.829 -69.565  0.00  0.00    +0.000 C 
ATOM     22  O   UNL     1     -56.564 -65.139 -70.001  0.00  0.00    +0.000 OA
ATOM     23  C   UNL     1     -57.001 -66.672 -68.419  0.00  0.00    +0.000 C 
ENDBRANCH   5  21
BRANCH   3  24
ATOM     24  N   UNL     1     -59.308 -63.599 -69.358  0.00  0.00    +0.000 N 
ATOM     25  H   UNL     1     -59.617 -62.717 -69.778  0.00  0.00    +0.000 HD
BRANCH  24  26
ATOM     26  C   UNL     1     -59.011 -63.494 -68.027  0.00  0.00    +0.000 A 
ATOM     27  C   UNL     1     -60.005 -63.941 -67.085  0.00  0.00    +0.000 A 
ATOM     28  C   UNL     1     -60.387 -63.238 -65.757  0.00  0.00    +0.000 A 
ATOM     29  C   UNL     1     -59.801 -62.011 -65.274  0.00  0.00    +0.000 A 
ATOM     30  C   UNL     1     -58.825 -61.547 -66.227  0.00  0.00    +0.000 A 
ATOM     31  C   UNL     1     -58.447 -62.253 -67.553  0.00  0.00    +0.000 A 
BRANCH  29  32
ATOM     32  C   UNL     1     -60.039 -61.433 -64.007  0.00  0.00    +0.000 C 
BRANCH  32  33
ATOM     33  N   UNL     1     -60.280 -60.822 -62.712  0.00  0.00    +0.000 NA
ATOM     34  C   UNL     1     -59.884 -59.427 -62.809  0.00  0.00    +0.000 C 
ATOM     35  C   UNL     1     -59.382 -61.455 -61.760  0.00  0.00    +0.000 C 
ENDBRANCH  32  33
ENDBRANCH  29  32
ENDBRANCH  24  26
ENDBRANCH   3  24
TORSDOF 7
ENDMDL
MODEL 7
REMARK VINA RESULT:      -5.3     17.868     20.134
REMARK  Name = OTSSP167.pdbqt.pdb
REMARK  7 active torsions:
REMARK  status: ('A' for Active; 'I' for Inactive)
REMARK    1  A    between atoms: C_5  and  N_19
REMARK    2  A    between atoms: C_7  and  C_31
REMARK    3  A    between atoms: C_11  and  C_13
REMARK    4  A    between atoms: C_18  and  O_34
REMARK    5  A    between atoms: N_19  and  C_21
REMARK    6  A    between atoms: C_24  and  C_27
REMARK    7  A    between atoms: C_27  and  N_28
REMARK                            x       y       z     vdW  Elec       q    Type
REMARK                         _______ _______ _______ _____ _____    ______ ____
ROOT
ATOM      1  N   UNL     1     -64.419 -57.317 -15.400  0.00  0.00    +0.000 NA
ATOM      2  N   UNL     1     -64.192 -58.407 -11.920  0.00  0.00    +0.000 NA
ATOM      3  C   UNL     1     -64.883 -59.498 -14.422  0.00  0.00    +0.000 A 
ATOM      4  C   UNL     1     -64.472 -58.142 -14.324  0.00  0.00    +0.000 A 
ATOM      5  C   UNL     1     -64.935 -60.266 -13.240  0.00  0.00    +0.000 A 
ATOM      6  C   UNL     1     -64.145 -57.665 -13.037  0.00  0.00    +0.000 A 
ATOM      7  C   UNL     1     -64.587 -59.688 -12.040  0.00  0.00    +0.000 A 
ATOM      8  C   UNL     1     -63.756 -56.342 -12.930  0.00  0.00    +0.000 A 
ATOM      9  C   UNL     1     -64.024 -56.027 -15.267  0.00  0.00    +0.000 A 
ATOM     10  C   UNL     1     -63.686 -55.505 -14.034  0.00  0.00    +0.000 A 
ENDROOT
BRANCH   9  13
ATOM     11 CL   UNL     1     -61.284 -54.552 -19.391  0.00  0.00    +0.000 Cl
ATOM     12 CL   UNL     1     -66.343 -52.733 -18.506  0.00  0.00    +0.000 Cl
ATOM     13  C   UNL     1     -63.966 -55.240 -16.501  0.00  0.00    +0.000 A 
ATOM     14  C   UNL     1     -65.036 -54.439 -16.916  0.00  0.00    +0.000 A 
ATOM     15  C   UNL     1     -62.819 -55.252 -17.307  0.00  0.00    +0.000 A 
ATOM     16  C   UNL     1     -62.739 -54.496 -18.473  0.00  0.00    +0.000 A 
ATOM     17  C   UNL     1     -64.969 -53.682 -18.087  0.00  0.00    +0.000 A 
ATOM     18  C   UNL     1     -63.817 -53.707 -18.872  0.00  0.00    +0.000 A 
BRANCH  18  19
ATOM     19  O   UNL     1     -63.755 -52.958 -20.018  0.00  0.00    +0.000 OA
ATOM     20  H   UNL     1     -63.102 -52.246 -19.884  0.00  0.00    +0.000 HD
ENDBRANCH  18  19
ENDBRANCH   9  13
BRANCH   5  21
ATOM     21  C   UNL     1     -65.386 -61.656 -13.212  0.00  0.00    +0.000 C 
ATOM     22  O   UNL     1     -66.511 -62.021 -12.915  0.00  0.00    +0.000 OA
ATOM     23  C   UNL     1     -64.498 -62.829 -13.499  0.00  0.00    +0.000 C 
ENDBRANCH   5  21
BRANCH   3  24
ATOM     24  N   UNL     1     -65.143 -60.146 -15.672  0.00  0.00    +0.000 N 
ATOM     25  H   UNL     1     -66.036 -59.890 -16.104  0.00  0.00    +0.000 HD
BRANCH  24  26
ATOM     26  C   UNL     1     -64.236 -60.656 -16.558  0.00  0.00    +0.000 A 
ATOM     27  C   UNL     1     -64.530 -61.935 -17.153  0.00  0.00    +0.000 A 
ATOM     28  C   UNL     1     -63.516 -63.081 -17.405  0.00  0.00    +0.000 A 
ATOM     29  C   UNL     1     -62.115 -63.033 -17.064  0.00  0.00    +0.000 A 
ATOM     30  C   UNL     1     -61.823 -61.764 -16.445  0.00  0.00    +0.000 A 
ATOM     31  C   UNL     1     -62.839 -60.623 -16.195  0.00  0.00    +0.000 A 
BRANCH  29  32
ATOM     32  C   UNL     1     -61.155 -64.010 -17.410  0.00  0.00    +0.000 C 
BRANCH  32  33
ATOM     33  N   UNL     1     -60.154 -65.001 -17.765  0.00  0.00    +0.000 NA
ATOM     34  C   UNL     1     -60.035 -65.919 -16.644  0.00  0.00    +0.000 C 
ATOM     35  C   UNL     1     -58.882 -64.308 -17.886  0.00  0.00    +0.000 C 
ENDBRANCH  32  33
ENDBRANCH  29  32
ENDBRANCH  24  26
ENDBRANCH   3  24
TORSDOF 7
ENDMDL
MODEL 8
REMARK VINA RESULT:      -5.3     18.893     22.817
REMARK  Name = OTSSP167.pdbqt.pdb
REMARK  7 active torsions:
REMARK  status: ('A' for Active; 'I' for Inactive)
REMARK    1  A    between atoms: C_5  and  N_19
REMARK    2  A    between atoms: C_7  and  C_31
REMARK    3  A    between atoms: C_11  and  C_13
REMARK    4  A    between atoms: C_18  and  O_34
REMARK    5  A    between atoms: N_19  and  C_21
REMARK    6  A    between atoms: C_24  and  C_27
REMARK    7  A    between atoms: C_27  and  N_28
REMARK                            x       y       z     vdW  Elec       q    Type
REMARK                         _______ _______ _______ _____ _____    ______ ____
ROOT
ATOM      1  N   UNL     1     -63.395 -45.569 -54.568  0.00  0.00    +0.000 NA
ATOM      2  N   UNL     1     -62.791 -43.015 -52.025  0.00  0.00    +0.000 NA
ATOM      3  C   UNL     1     -63.142 -45.806 -52.157  0.00  0.00    +0.000 A 
ATOM      4  C   UNL     1     -63.174 -45.026 -53.344  0.00  0.00    +0.000 A 
ATOM      5  C   UNL     1     -62.937 -45.144 -50.929  0.00  0.00    +0.000 A 
ATOM      6  C   UNL     1     -62.994 -43.634 -53.199  0.00  0.00    +0.000 A 
ATOM      7  C   UNL     1     -62.769 -43.777 -50.916  0.00  0.00    +0.000 A 
ATOM      8  C   UNL     1     -63.034 -42.864 -54.348  0.00  0.00    +0.000 A 
ATOM      9  C   UNL     1     -63.420 -44.792 -55.678  0.00  0.00    +0.000 A 
ATOM     10  C   UNL     1     -63.244 -43.424 -55.599  0.00  0.00    +0.000 A 
ENDROOT
BRANCH   9  13
ATOM     11 CL   UNL     1     -66.716 -47.109 -58.913  0.00  0.00    +0.000 Cl
ATOM     12 CL   UNL     1     -61.393 -46.734 -60.018  0.00  0.00    +0.000 Cl
ATOM     13  C   UNL     1     -63.627 -45.490 -56.949  0.00  0.00    +0.000 A 
ATOM     14  C   UNL     1     -62.566 -45.768 -57.818  0.00  0.00    +0.000 A 
ATOM     15  C   UNL     1     -64.904 -45.918 -57.334  0.00  0.00    +0.000 A 
ATOM     16  C   UNL     1     -65.117 -46.598 -58.530  0.00  0.00    +0.000 A 
ATOM     17  C   UNL     1     -62.767 -46.444 -59.022  0.00  0.00    +0.000 A 
ATOM     18  C   UNL     1     -64.048 -46.865 -59.384  0.00  0.00    +0.000 A 
BRANCH  18  19
ATOM     19  O   UNL     1     -64.239 -47.532 -60.565  0.00  0.00    +0.000 OA
ATOM     20  H   UNL     1     -63.886 -46.981 -61.289  0.00  0.00    +0.000 HD
ENDBRANCH  18  19
ENDBRANCH   9  13
BRANCH   5  21
ATOM     21  C   UNL     1     -62.931 -45.835 -49.642  0.00  0.00    +0.000 C 
ATOM     22  O   UNL     1     -62.281 -46.834 -49.387  0.00  0.00    +0.000 OA
ATOM     23  C   UNL     1     -63.772 -45.427 -48.470  0.00  0.00    +0.000 C 
ENDBRANCH   5  21
BRANCH   3  24
ATOM     24  N   UNL     1     -63.206 -47.236 -52.162  0.00  0.00    +0.000 N 
ATOM     25  H   UNL     1     -62.609 -47.690 -51.465  0.00  0.00    +0.000 HD
BRANCH  24  26
ATOM     26  C   UNL     1     -64.231 -48.029 -52.601  0.00  0.00    +0.000 A 
ATOM     27  C   UNL     1     -65.439 -48.051 -51.817  0.00  0.00    +0.000 A 
ATOM     28  C   UNL     1     -66.296 -49.302 -51.493  0.00  0.00    +0.000 A 
ATOM     29  C   UNL     1     -65.995 -50.644 -51.928  0.00  0.00    +0.000 A 
ATOM     30  C   UNL     1     -64.772 -50.629 -52.691  0.00  0.00    +0.000 A 
ATOM     31  C   UNL     1     -63.919 -49.377 -53.011  0.00  0.00    +0.000 A 
BRANCH  29  32
ATOM     32  C   UNL     1     -66.834 -51.767 -51.759  0.00  0.00    +0.000 C 
BRANCH  32  33
ATOM     33  N   UNL     1     -67.683 -52.931 -51.574  0.00  0.00    +0.000 NA
ATOM     34  C   UNL     1     -68.194 -52.885 -50.214  0.00  0.00    +0.000 C 
ATOM     35  C   UNL     1     -66.834 -54.107 -51.671  0.00  0.00    +0.000 C 
ENDBRANCH  32  33
ENDBRANCH  29  32
ENDBRANCH  24  26
ENDBRANCH   3  24
TORSDOF 7
ENDMDL
MODEL 9
REMARK VINA RESULT:      -5.2     20.991     24.420
REMARK  Name = OTSSP167.pdbqt.pdb
REMARK  7 active torsions:
REMARK  status: ('A' for Active; 'I' for Inactive)
REMARK    1  A    between atoms: C_5  and  N_19
REMARK    2  A    between atoms: C_7  and  C_31
REMARK    3  A    between atoms: C_11  and  C_13
REMARK    4  A    between atoms: C_18  and  O_34
REMARK    5  A    between atoms: N_19  and  C_21
REMARK    6  A    between atoms: C_24  and  C_27
REMARK    7  A    between atoms: C_27  and  N_28
REMARK                            x       y       z     vdW  Elec       q    Type
REMARK                         _______ _______ _______ _____ _____    ______ ____
ROOT
ATOM      1  N   UNL     1     -66.453 -48.063 -57.669  0.00  0.00    +0.000 NA
ATOM      2  N   UNL     1     -70.070 -48.527 -57.896  0.00  0.00    +0.000 NA
ATOM      3  C   UNL     1     -67.896 -49.629 -56.487  0.00  0.00    +0.000 A 
ATOM      4  C   UNL     1     -67.685 -48.568 -57.408  0.00  0.00    +0.000 A 
ATOM      5  C   UNL     1     -69.211 -50.106 -56.308  0.00  0.00    +0.000 A 
ATOM      6  C   UNL     1     -68.821 -48.070 -58.079  0.00  0.00    +0.000 A 
ATOM      7  C   UNL     1     -70.242 -49.534 -57.020  0.00  0.00    +0.000 A 
ATOM      8  C   UNL     1     -68.625 -47.045 -58.987  0.00  0.00    +0.000 A 
ATOM      9  C   UNL     1     -66.291 -47.052 -58.556  0.00  0.00    +0.000 A 
ATOM     10  C   UNL     1     -67.366 -46.519 -59.240  0.00  0.00    +0.000 A 
ENDROOT
BRANCH   9  13
ATOM     11 CL   UNL     1     -61.968 -47.038 -61.386  0.00  0.00    +0.000 Cl
ATOM     12 CL   UNL     1     -62.378 -44.195 -56.755  0.00  0.00    +0.000 Cl
ATOM     13  C   UNL     1     -64.922 -46.558 -58.729  0.00  0.00    +0.000 A 
ATOM     14  C   UNL     1     -64.324 -45.703 -57.797  0.00  0.00    +0.000 A 
ATOM     15  C   UNL     1     -64.155 -46.942 -59.837  0.00  0.00    +0.000 A 
ATOM     16  C   UNL     1     -62.846 -46.498 -60.007  0.00  0.00    +0.000 A 
ATOM     17  C   UNL     1     -63.016 -45.246 -57.961  0.00  0.00    +0.000 A 
ATOM     18  C   UNL     1     -62.268 -45.644 -59.069  0.00  0.00    +0.000 A 
BRANCH  18  19
ATOM     19  O   UNL     1     -60.983 -45.195 -59.223  0.00  0.00    +0.000 OA
ATOM     20  H   UNL     1     -60.389 -45.790 -58.728  0.00  0.00    +0.000 HD
ENDBRANCH  18  19
ENDBRANCH   9  13
BRANCH   5  21
ATOM     21  C   UNL     1     -69.542 -51.221 -55.424  0.00  0.00    +0.000 C 
ATOM     22  O   UNL     1     -69.085 -52.348 -55.517  0.00  0.00    +0.000 OA
ATOM     23  C   UNL     1     -70.534 -51.134 -54.304  0.00  0.00    +0.000 C 
ENDBRANCH   5  21
BRANCH   3  24
ATOM     24  N   UNL     1     -66.856 -50.161 -55.659  0.00  0.00    +0.000 N 
ATOM     25  H   UNL     1     -66.068 -50.565 -56.175  0.00  0.00    +0.000 HD
BRANCH  24  26
ATOM     26  C   UNL     1     -66.543 -49.812 -54.375  0.00  0.00    +0.000 A 
ATOM     27  C   UNL     1     -66.701 -48.430 -54.002  0.00  0.00    +0.000 A 
ATOM     28  C   UNL     1     -65.731 -47.605 -53.117  0.00  0.00    +0.000 A 
ATOM     29  C   UNL     1     -64.508 -48.109 -52.541  0.00  0.00    +0.000 A 
ATOM     30  C   UNL     1     -64.334 -49.485 -52.934  0.00  0.00    +0.000 A 
ATOM     31  C   UNL     1     -65.306 -50.304 -53.819  0.00  0.00    +0.000 A 
BRANCH  29  32
ATOM     32  C   UNL     1     -63.688 -47.414 -51.625  0.00  0.00    +0.000 C 
BRANCH  32  33
ATOM     33  N   UNL     1     -62.831 -46.697 -50.697  0.00  0.00    +0.000 NA
ATOM     34  C   UNL     1     -63.689 -45.873 -49.861  0.00  0.00    +0.000 C 
ATOM     35  C   UNL     1     -62.005 -45.794 -51.480  0.00  0.00    +0.000 C 
ENDBRANCH  32  33
ENDBRANCH  29  32
ENDBRANCH  24  26
ENDBRANCH   3  24
TORSDOF 7
ENDMDL
