MODEL 1
REMARK VINA RESULT:      -5.3      0.000      0.000
REMARK  Name = 
REMARK  0 active torsions:
REMARK  status: ('A' for Active; 'I' for Inactive)
REMARK                            x       y       z     vdW  Elec       q    Type
REMARK                         _______ _______ _______ _____ _____    ______ ____
ROOT
ATOM      1  O   UNL     1     -63.061 -51.570 -18.282  0.00  0.00    +0.000 OA
ATOM      2  O   UNL     1     -61.995 -56.389 -16.612  0.00  0.00    +0.000 OA
ATOM      3  N   UNL     1     -63.811 -51.688 -19.420  0.00  0.00    +0.000 N 
ATOM      4  N   UNL     1     -63.563 -54.931 -17.491  0.00  0.00    +0.000 N 
ATOM      5  C   UNL     1     -64.381 -53.106 -19.618  0.00  0.00    +0.000 C 
ATOM      6  C   UNL     1     -65.355 -53.527 -18.500  0.00  0.00    +0.000 C 
ATOM      7  C   UNL     1     -63.296 -54.167 -19.838  0.00  0.00    +0.000 C 
ATOM      8  C   UNL     1     -64.615 -53.933 -17.194  0.00  0.00    +0.000 C 
ATOM      9  C   UNL     1     -66.454 -52.460 -18.342  0.00  0.00    +0.000 C 
ATOM     10  C   UNL     1     -62.603 -54.552 -18.531  0.00  0.00    +0.000 C 
ATOM     11  C   UNL     1     -64.958 -50.704 -19.331  0.00  0.00    +0.000 C 
ATOM     12  C   UNL     1     -62.307 -53.749 -20.934  0.00  0.00    +0.000 C 
ATOM     13  C   UNL     1     -62.939 -51.337 -20.607  0.00  0.00    +0.000 C 
ATOM     14  C   UNL     1     -65.899 -51.051 -18.183  0.00  0.00    +0.000 C 
ATOM     15  C   UNL     1     -61.790 -52.325 -20.766  0.00  0.00    +0.000 C 
ATOM     16  C   UNL     1     -65.611 -54.439 -16.138  0.00  0.00    +0.000 C 
ATOM     17  C   UNL     1     -64.867 -54.994 -14.938  0.00  0.00    +0.000 C 
ATOM     18  C   UNL     1     -63.078 -55.807 -16.517  0.00  0.00    +0.000 C 
ATOM     19  C   UNL     1     -64.015 -56.160 -15.384  0.00  0.00    +0.000 C 
ENDROOT
TORSDOF 0
ENDMDL
MODEL 2
REMARK VINA RESULT:      -5.2     38.129     40.570
REMARK  Name = 
REMARK  0 active torsions:
REMARK  status: ('A' for Active; 'I' for Inactive)
REMARK                            x       y       z     vdW  Elec       q    Type
REMARK                         _______ _______ _______ _____ _____    ______ ____
ROOT
ATOM      1  O   UNL     1     -65.106 -47.457 -56.431  0.00  0.00    +0.000 OA
ATOM      2  O   UNL     1     -60.547 -45.445 -57.953  0.00  0.00    +0.000 OA
ATOM      3  N   UNL     1     -66.065 -46.507 -56.645  0.00  0.00    +0.000 N 
ATOM      4  N   UNL     1     -62.805 -45.711 -58.389  0.00  0.00    +0.000 N 
ATOM      5  C   UNL     1     -65.581 -45.363 -57.557  0.00  0.00    +0.000 C 
ATOM      6  C   UNL     1     -65.221 -45.835 -58.979  0.00  0.00    +0.000 C 
ATOM      7  C   UNL     1     -64.445 -44.539 -56.940  0.00  0.00    +0.000 C 
ATOM      8  C   UNL     1     -63.841 -46.551 -59.031  0.00  0.00    +0.000 C 
ATOM      9  C   UNL     1     -66.403 -46.618 -59.580  0.00  0.00    +0.000 C 
ATOM     10  C   UNL     1     -63.103 -45.266 -57.024  0.00  0.00    +0.000 C 
ATOM     11  C   UNL     1     -67.259 -47.179 -57.288  0.00  0.00    +0.000 C 
ATOM     12  C   UNL     1     -64.783 -44.080 -55.515  0.00  0.00    +0.000 C 
ATOM     13  C   UNL     1     -66.475 -45.929 -55.306  0.00  0.00    +0.000 C 
ATOM     14  C   UNL     1     -66.910 -47.726 -58.667  0.00  0.00    +0.000 C 
ATOM     15  C   UNL     1     -65.316 -45.203 -54.634  0.00  0.00    +0.000 C 
ATOM     16  C   UNL     1     -63.472 -46.919 -60.476  0.00  0.00    +0.000 C 
ATOM     17  C   UNL     1     -62.055 -47.456 -60.536  0.00  0.00    +0.000 C 
ATOM     18  C   UNL     1     -61.448 -45.850 -58.690  0.00  0.00    +0.000 C 
ATOM     19  C   UNL     1     -61.102 -46.383 -60.062  0.00  0.00    +0.000 C 
ENDROOT
TORSDOF 0
ENDMDL
MODEL 3
REMARK VINA RESULT:      -5.1      2.110      4.729
REMARK  Name = 
REMARK  0 active torsions:
REMARK  status: ('A' for Active; 'I' for Inactive)
REMARK                            x       y       z     vdW  Elec       q    Type
REMARK                         _______ _______ _______ _____ _____    ______ ____
ROOT
ATOM      1  O   UNL     1     -62.675 -53.589 -16.603  0.00  0.00    +0.000 OA
ATOM      2  O   UNL     1     -66.591 -51.607 -13.794  0.00  0.00    +0.000 OA
ATOM      3  N   UNL     1     -63.186 -54.612 -17.352  0.00  0.00    +0.000 N 
ATOM      4  N   UNL     1     -65.875 -52.427 -15.837  0.00  0.00    +0.000 N 
ATOM      5  C   UNL     1     -64.726 -54.605 -17.405  0.00  0.00    +0.000 C 
ATOM      6  C   UNL     1     -65.301 -53.344 -18.080  0.00  0.00    +0.000 C 
ATOM      7  C   UNL     1     -65.378 -54.851 -16.040  0.00  0.00    +0.000 C 
ATOM      8  C   UNL     1     -65.260 -52.103 -17.144  0.00  0.00    +0.000 C 
ATOM      9  C   UNL     1     -64.656 -53.157 -19.466  0.00  0.00    +0.000 C 
ATOM     10  C   UNL     1     -65.334 -53.606 -15.154  0.00  0.00    +0.000 C 
ATOM     11  C   UNL     1     -62.644 -54.481 -18.759  0.00  0.00    +0.000 C 
ATOM     12  C   UNL     1     -64.799 -56.092 -15.349  0.00  0.00    +0.000 C 
ATOM     13  C   UNL     1     -62.720 -55.923 -16.754  0.00  0.00    +0.000 C 
ATOM     14  C   UNL     1     -63.134 -53.200 -19.425  0.00  0.00    +0.000 C 
ATOM     15  C   UNL     1     -63.275 -56.124 -15.350  0.00  0.00    +0.000 C 
ATOM     16  C   UNL     1     -65.929 -50.892 -17.813  0.00  0.00    +0.000 C 
ATOM     17  C   UNL     1     -66.039 -49.743 -16.830  0.00  0.00    +0.000 C 
ATOM     18  C   UNL     1     -66.401 -51.439 -15.001  0.00  0.00    +0.000 C 
ATOM     19  C   UNL     1     -66.898 -50.174 -15.663  0.00  0.00    +0.000 C 
ENDROOT
TORSDOF 0
ENDMDL
MODEL 4
REMARK VINA RESULT:      -5.1     15.146     16.614
REMARK  Name = 
REMARK  0 active torsions:
REMARK  status: ('A' for Active; 'I' for Inactive)
REMARK                            x       y       z     vdW  Elec       q    Type
REMARK                         _______ _______ _______ _____ _____    ______ ____
ROOT
ATOM      1  O   UNL     1     -72.310 -57.649 -32.028  0.00  0.00    +0.000 OA
ATOM      2  O   UNL     1     -67.166 -58.481 -32.062  0.00  0.00    +0.000 OA
ATOM      3  N   UNL     1     -72.506 -56.310 -31.836  0.00  0.00    +0.000 N 
ATOM      4  N   UNL     1     -68.931 -57.146 -32.741  0.00  0.00    +0.000 N 
ATOM      5  C   UNL     1     -71.228 -55.479 -32.056  0.00  0.00    +0.000 C 
ATOM      6  C   UNL     1     -70.695 -55.560 -33.500  0.00  0.00    +0.000 C 
ATOM      7  C   UNL     1     -70.124 -55.790 -31.038  0.00  0.00    +0.000 C 
ATOM      8  C   UNL     1     -69.955 -56.899 -33.781  0.00  0.00    +0.000 C 
ATOM      9  C   UNL     1     -71.819 -55.197 -34.488  0.00  0.00    +0.000 C 
ATOM     10  C   UNL     1     -69.409 -57.103 -31.356  0.00  0.00    +0.000 C 
ATOM     11  C   UNL     1     -73.569 -55.846 -32.810  0.00  0.00    +0.000 C 
ATOM     12  C   UNL     1     -70.647 -55.733 -29.597  0.00  0.00    +0.000 C 
ATOM     13  C   UNL     1     -72.996 -56.095 -30.419  0.00  0.00    +0.000 C 
ATOM     14  C   UNL     1     -73.098 -55.989 -34.253  0.00  0.00    +0.000 C 
ATOM     15  C   UNL     1     -71.944 -56.508 -29.397  0.00  0.00    +0.000 C 
ATOM     16  C   UNL     1     -69.355 -56.903 -35.196  0.00  0.00    +0.000 C 
ATOM     17  C   UNL     1     -68.491 -58.134 -35.396  0.00  0.00    +0.000 C 
ATOM     18  C   UNL     1     -67.829 -57.973 -32.969  0.00  0.00    +0.000 C 
ATOM     19  C   UNL     1     -67.356 -58.106 -34.399  0.00  0.00    +0.000 C 
ENDROOT
TORSDOF 0
ENDMDL
MODEL 5
REMARK VINA RESULT:      -5.1     11.803     13.003
REMARK  Name = 
REMARK  0 active torsions:
REMARK  status: ('A' for Active; 'I' for Inactive)
REMARK                            x       y       z     vdW  Elec       q    Type
REMARK                         _______ _______ _______ _____ _____    ______ ____
ROOT
ATOM      1  O   UNL     1     -74.026 -59.858 -25.988  0.00  0.00    +0.000 OA
ATOM      2  O   UNL     1     -74.659 -54.727 -25.340  0.00  0.00    +0.000 OA
ATOM      3  N   UNL     1     -72.682 -60.100 -26.049  0.00  0.00    +0.000 N 
ATOM      4  N   UNL     1     -73.485 -56.636 -24.762  0.00  0.00    +0.000 N 
ATOM      5  C   UNL     1     -71.836 -58.908 -25.560  0.00  0.00    +0.000 C 
ATOM      6  C   UNL     1     -72.072 -58.568 -24.075  0.00  0.00    +0.000 C 
ATOM      7  C   UNL     1     -71.978 -57.664 -26.445  0.00  0.00    +0.000 C 
ATOM      8  C   UNL     1     -73.406 -57.801 -23.851  0.00  0.00    +0.000 C 
ATOM      9  C   UNL     1     -71.875 -59.831 -23.217  0.00  0.00    +0.000 C 
ATOM     10  C   UNL     1     -73.291 -56.928 -26.185  0.00  0.00    +0.000 C 
ATOM     11  C   UNL     1     -72.381 -61.306 -25.184  0.00  0.00    +0.000 C 
ATOM     12  C   UNL     1     -71.766 -57.994 -27.928  0.00  0.00    +0.000 C 
ATOM     13  C   UNL     1     -72.315 -60.408 -27.486  0.00  0.00    +0.000 C 
ATOM     14  C   UNL     1     -72.681 -61.023 -23.716  0.00  0.00    +0.000 C 
ATOM     15  C   UNL     1     -72.560 -59.209 -28.393  0.00  0.00    +0.000 C 
ATOM     16  C   UNL     1     -73.560 -57.393 -22.378  0.00  0.00    +0.000 C 
ATOM     17  C   UNL     1     -74.772 -56.498 -22.204  0.00  0.00    +0.000 C 
ATOM     18  C   UNL     1     -74.291 -55.530 -24.481  0.00  0.00    +0.000 C 
ATOM     19  C   UNL     1     -74.579 -55.244 -23.025  0.00  0.00    +0.000 C 
ENDROOT
TORSDOF 0
ENDMDL
MODEL 6
REMARK VINA RESULT:      -5.0     73.464     75.903
REMARK  Name = 
REMARK  0 active torsions:
REMARK  status: ('A' for Active; 'I' for Inactive)
REMARK                            x       y       z     vdW  Elec       q    Type
REMARK                         _______ _______ _______ _____ _____    ______ ____
ROOT
ATOM      1  O   UNL     1     -43.183 -60.571 -91.992  0.00  0.00    +0.000 OA
ATOM      2  O   UNL     1     -40.713 -64.155 -89.129  0.00  0.00    +0.000 OA
ATOM      3  N   UNL     1     -44.257 -61.183 -92.576  0.00  0.00    +0.000 N 
ATOM      4  N   UNL     1     -42.733 -63.246 -89.797  0.00  0.00    +0.000 N 
ATOM      5  C   UNL     1     -44.587 -62.549 -91.942  0.00  0.00    +0.000 C 
ATOM      6  C   UNL     1     -44.996 -62.443 -90.459  0.00  0.00    +0.000 C 
ATOM      7  C   UNL     1     -43.478 -63.589 -92.140  0.00  0.00    +0.000 C 
ATOM      8  C   UNL     1     -43.772 -62.227 -89.524  0.00  0.00    +0.000 C 
ATOM      9  C   UNL     1     -46.141 -61.424 -90.309  0.00  0.00    +0.000 C 
ATOM     10  C   UNL     1     -42.302 -63.355 -91.193  0.00  0.00    +0.000 C 
ATOM     11  C   UNL     1     -45.456 -60.270 -92.430  0.00  0.00    +0.000 C 
ATOM     12  C   UNL     1     -43.048 -63.688 -93.609  0.00  0.00    +0.000 C 
ATOM     13  C   UNL     1     -43.955 -61.384 -94.046  0.00  0.00    +0.000 C 
ATOM     14  C   UNL     1     -45.836 -60.084 -90.965  0.00  0.00    +0.000 C 
ATOM     15  C   UNL     1     -42.780 -62.332 -94.249  0.00  0.00    +0.000 C 
ATOM     16  C   UNL     1     -44.207 -62.225 -88.049  0.00  0.00    +0.000 C 
ATOM     17  C   UNL     1     -42.990 -62.190 -87.144  0.00  0.00    +0.000 C 
ATOM     18  C   UNL     1     -41.776 -63.600 -88.844  0.00  0.00    +0.000 C 
ATOM     19  C   UNL     1     -42.157 -63.426 -87.391  0.00  0.00    +0.000 C 
ENDROOT
TORSDOF 0
ENDMDL
MODEL 7
REMARK VINA RESULT:      -5.0     47.421     49.836
REMARK  Name = 
REMARK  0 active torsions:
REMARK  status: ('A' for Active; 'I' for Inactive)
REMARK                            x       y       z     vdW  Elec       q    Type
REMARK                         _______ _______ _______ _____ _____    ______ ____
ROOT
ATOM      1  O   UNL     1     -52.893 -58.911 -67.879  0.00  0.00    +0.000 OA
ATOM      2  O   UNL     1     -57.658 -59.898 -66.015  0.00  0.00    +0.000 OA
ATOM      3  N   UNL     1     -52.887 -57.617 -68.321  0.00  0.00    +0.000 N 
ATOM      4  N   UNL     1     -55.892 -58.409 -66.166  0.00  0.00    +0.000 N 
ATOM      5  C   UNL     1     -54.094 -56.805 -67.815  0.00  0.00    +0.000 C 
ATOM      6  C   UNL     1     -54.123 -56.660 -66.280  0.00  0.00    +0.000 C 
ATOM      7  C   UNL     1     -55.436 -57.320 -68.350  0.00  0.00    +0.000 C 
ATOM      8  C   UNL     1     -54.613 -57.956 -65.574  0.00  0.00    +0.000 C 
ATOM      9  C   UNL     1     -52.777 -56.097 -65.787  0.00  0.00    +0.000 C 
ATOM     10  C   UNL     1     -55.892 -58.584 -67.622  0.00  0.00    +0.000 C 
ATOM     11  C   UNL     1     -51.612 -56.961 -67.836  0.00  0.00    +0.000 C 
ATOM     12  C   UNL     1     -55.412 -57.488 -69.875  0.00  0.00    +0.000 C 
ATOM     13  C   UNL     1     -52.901 -57.628 -69.836  0.00  0.00    +0.000 C 
ATOM     14  C   UNL     1     -51.578 -56.874 -66.315  0.00  0.00    +0.000 C 
ATOM     15  C   UNL     1     -54.186 -58.242 -70.377  0.00  0.00    +0.000 C 
ATOM     16  C   UNL     1     -54.723 -57.742 -64.057  0.00  0.00    +0.000 C 
ATOM     17  C   UNL     1     -55.364 -58.950 -63.401  0.00  0.00    +0.000 C 
ATOM     18  C   UNL     1     -56.785 -59.223 -65.465  0.00  0.00    +0.000 C 
ATOM     19  C   UNL     1     -56.759 -59.129 -63.957  0.00  0.00    +0.000 C 
ENDROOT
TORSDOF 0
ENDMDL
MODEL 8
REMARK VINA RESULT:      -4.9     37.568     39.911
REMARK  Name = 
REMARK  0 active torsions:
REMARK  status: ('A' for Active; 'I' for Inactive)
REMARK                            x       y       z     vdW  Elec       q    Type
REMARK                         _______ _______ _______ _____ _____    ______ ____
ROOT
ATOM      1  O   UNL     1     -59.598 -58.228 -58.699  0.00  0.00    +0.000 OA
ATOM      2  O   UNL     1     -64.429 -56.433 -57.930  0.00  0.00    +0.000 OA
ATOM      3  N   UNL     1     -58.764 -57.147 -58.757  0.00  0.00    +0.000 N 
ATOM      4  N   UNL     1     -62.183 -56.283 -57.391  0.00  0.00    +0.000 N 
ATOM      5  C   UNL     1     -59.421 -55.855 -58.234  0.00  0.00    +0.000 C 
ATOM      6  C   UNL     1     -59.804 -55.933 -56.742  0.00  0.00    +0.000 C 
ATOM      7  C   UNL     1     -60.606 -55.391 -59.089  0.00  0.00    +0.000 C 
ATOM      8  C   UNL     1     -61.096 -56.766 -56.509  0.00  0.00    +0.000 C 
ATOM      9  C   UNL     1     -58.577 -56.356 -55.914  0.00  0.00    +0.000 C 
ATOM     10  C   UNL     1     -61.861 -56.221 -58.820  0.00  0.00    +0.000 C 
ATOM     11  C   UNL     1     -57.540 -57.451 -57.920  0.00  0.00    +0.000 C 
ATOM     12  C   UNL     1     -60.243 -55.330 -60.578  0.00  0.00    +0.000 C 
ATOM     13  C   UNL     1     -58.348 -56.939 -60.198  0.00  0.00    +0.000 C 
ATOM     14  C   UNL     1     -57.901 -57.612 -56.448  0.00  0.00    +0.000 C 
ATOM     15  C   UNL     1     -59.541 -56.587 -61.078  0.00  0.00    +0.000 C 
ATOM     16  C   UNL     1     -61.501 -56.739 -55.026  0.00  0.00    +0.000 C 
ATOM     17  C   UNL     1     -62.851 -57.405 -54.838  0.00  0.00    +0.000 C 
ATOM     18  C   UNL     1     -63.530 -56.493 -57.088  0.00  0.00    +0.000 C 
ATOM     19  C   UNL     1     -63.890 -56.641 -55.627  0.00  0.00    +0.000 C 
ENDROOT
TORSDOF 0
ENDMDL
MODEL 9
REMARK VINA RESULT:      -4.9     39.191     41.346
REMARK  Name = 
REMARK  0 active torsions:
REMARK  status: ('A' for Active; 'I' for Inactive)
REMARK                            x       y       z     vdW  Elec       q    Type
REMARK                         _______ _______ _______ _____ _____    ______ ____
ROOT
ATOM      1  O   UNL     1     -65.928 -44.521 -58.802  0.00  0.00    +0.000 OA
ATOM      2  O   UNL     1     -62.510 -47.052 -61.812  0.00  0.00    +0.000 OA
ATOM      3  N   UNL     1     -66.506 -45.443 -57.975  0.00  0.00    +0.000 N 
ATOM      4  N   UNL     1     -63.411 -46.766 -59.700  0.00  0.00    +0.000 N 
ATOM      5  C   UNL     1     -65.741 -46.780 -57.941  0.00  0.00    +0.000 C 
ATOM      6  C   UNL     1     -64.312 -46.644 -57.381  0.00  0.00    +0.000 C 
ATOM      7  C   UNL     1     -65.743 -47.512 -59.288  0.00  0.00    +0.000 C 
ATOM      8  C   UNL     1     -63.328 -46.030 -58.418  0.00  0.00    +0.000 C 
ATOM      9  C   UNL     1     -64.357 -45.947 -56.008  0.00  0.00    +0.000 C 
ATOM     10  C   UNL     1     -64.754 -46.891 -60.274  0.00  0.00    +0.000 C 
ATOM     11  C   UNL     1     -66.547 -44.862 -56.578  0.00  0.00    +0.000 C 
ATOM     12  C   UNL     1     -67.159 -47.635 -59.866  0.00  0.00    +0.000 C 
ATOM     13  C   UNL     1     -67.920 -45.697 -58.455  0.00  0.00    +0.000 C 
ATOM     14  C   UNL     1     -65.143 -44.643 -56.027  0.00  0.00    +0.000 C 
ATOM     15  C   UNL     1     -67.933 -46.322 -59.844  0.00  0.00    +0.000 C 
ATOM     16  C   UNL     1     -61.897 -46.000 -57.860  0.00  0.00    +0.000 C 
ATOM     17  C   UNL     1     -60.922 -45.565 -58.938  0.00  0.00    +0.000 C 
ATOM     18  C   UNL     1     -62.362 -46.767 -60.622  0.00  0.00    +0.000 C 
ATOM     19  C   UNL     1     -60.968 -46.560 -60.074  0.00  0.00    +0.000 C 
ENDROOT
TORSDOF 0
ENDMDL
