MODEL 1
REMARK VINA RESULT:      -5.3      0.000      0.000
REMARK  Name = 
REMARK  23 active torsions:
REMARK  status: ('A' for Active; 'I' for Inactive)
REMARK    1  A    between atoms: O_2  and  C_17
REMARK    2  A    between atoms: O_2  and  C_36
REMARK    3  A    between atoms: O_3  and  C_20
REMARK    4  A    between atoms: O_3  and  C_37
REMARK    5  A    between atoms: O_4  and  C_21
REMARK    6  A    between atoms: O_5  and  C_22
REMARK    7  A    between atoms: O_6  and  C_30
REMARK    8  A    between atoms: O_6  and  C_39
REMARK    9  A    between atoms: O_8  and  C_31
REMARK   10  A    between atoms: O_8  and  C_40
REMARK   11  A    between atoms: O_13  and  C_42
REMARK   12  A    between atoms: N_15  and  C_46
REMARK   13  A    between atoms: C_18  and  C_29
REMARK   14  A    between atoms: C_24  and  C_33
REMARK   15  A    between atoms: C_24  and  C_34
REMARK   16  A    between atoms: C_32  and  C_35
REMARK   17  A    between atoms: C_36  and  C_38
REMARK   18  A    between atoms: C_37  and  C_41
REMARK   19  A    between atoms: C_39  and  C_43
REMARK   20  A    between atoms: C_40  and  C_42
REMARK   21  A    between atoms: C_42  and  C_46
REMARK   22  A    between atoms: C_46  and  C_50
REMARK   23  A    between atoms: C_53  and  C_56
REMARK                            x       y       z     vdW  Elec       q    Type
REMARK                         _______ _______ _______ _____ _____    ______ ____
ROOT
ATOM      1  O   UNL     1     -60.464 -48.261 -25.844  0.00  0.00    +0.000 OA
ATOM      2  O   UNL     1     -55.480 -51.911 -23.333  0.00  0.00    +0.000 OA
ATOM      3  C   UNL     1     -59.558 -51.406 -24.781  0.00  0.00    +0.000 C 
ATOM      4  C   UNL     1     -60.385 -50.089 -24.732  0.00  0.00    +0.000 C 
ATOM      5  C   UNL     1     -57.995 -51.119 -23.744  0.00  0.00    +0.000 C 
ATOM      6  C   UNL     1     -59.380 -49.188 -25.559  0.00  0.00    +0.000 C 
ATOM      7  C   UNL     1     -60.632 -52.914 -24.553  0.00  0.00    +0.000 C 
ATOM      8  C   UNL     1     -60.529 -54.800 -24.413  0.00  0.00    +0.000 C 
ATOM      9  C   UNL     1     -57.268 -49.908 -24.467  0.00  0.00    +0.000 C 
ATOM     10  C   UNL     1     -58.172 -48.683 -24.804  0.00  0.00    +0.000 C 
ATOM     11  C   UNL     1     -59.091 -55.817 -24.202  0.00  0.00    +0.000 C 
ATOM     12  C   UNL     1     -61.349 -49.446 -25.806  0.00  0.00    +0.000 C 
ATOM     13  C   UNL     1     -56.645 -52.365 -23.343  0.00  0.00    +0.000 C 
ATOM     14  C   UNL     1     -61.330 -55.182 -23.085  0.00  0.00    +0.000 C 
ATOM     15  C   UNL     1     -58.216 -55.357 -22.936  0.00  0.00    +0.000 C 
ATOM     16  C   UNL     1     -58.318 -50.530 -22.308  0.00  0.00    +0.000 C 
ATOM     17  C   UNL     1     -56.806 -54.243 -22.972  0.00  0.00    +0.000 C 
ATOM     18  C   UNL     1     -60.505 -55.395 -21.736  0.00  0.00    +0.000 C 
ATOM     19  C   UNL     1     -58.933 -55.449 -21.766  0.00  0.00    +0.000 C 
ATOM     20  C   UNL     1     -59.630 -57.303 -23.893  0.00  0.00    +0.000 C 
ATOM     21  C   UNL     1     -58.259 -56.232 -25.458  0.00  0.00    +0.000 C 
ATOM     22  C   UNL     1     -58.285 -55.333 -20.408  0.00  0.00    +0.000 C 
ENDROOT
BRANCH   9  23
ATOM     23  O   UNL     1     -56.714 -50.367 -25.699  0.00  0.00    +0.000 OA
ATOM     24  H   UNL     1     -56.540 -49.568 -26.237  0.00  0.00    +0.000 HD
ENDBRANCH   9  23
BRANCH   8  25
ATOM     25  O   UNL     1     -61.298 -55.312 -25.518  0.00  0.00    +0.000 OA
ATOM     26  H   UNL     1     -62.112 -55.718 -25.172  0.00  0.00    +0.000 HD
ENDBRANCH   8  25
BRANCH  18  27
ATOM     27  O   UNL     1     -60.862 -54.321 -20.817  0.00  0.00    +0.000 OA
BRANCH  27  29
ATOM     28  O   UNL     1     -63.045 -54.552 -20.265  0.00  0.00    +0.000 OA
ATOM     29  C   UNL     1     -61.863 -54.576 -19.935  0.00  0.00    +0.000 C 
BRANCH  29  30
ATOM     30  C   UNL     1     -61.405 -54.731 -18.482  0.00  0.00    +0.000 C 
BRANCH  30  31
ATOM     31  O   UNL     1     -61.438 -56.067 -17.969  0.00  0.00    +0.000 OA
ATOM     32  H   UNL     1     -60.897 -56.058 -17.157  0.00  0.00    +0.000 HD
ENDBRANCH  30  31
BRANCH  30  33
ATOM     33  C   UNL     1     -62.270 -53.787 -17.600  0.00  0.00    +0.000 C 
BRANCH  33  34
ATOM     34  C   UNL     1     -61.387 -52.826 -16.817  0.00  0.00    +0.000 A 
ATOM     35  C   UNL     1     -61.975 -51.943 -15.895  0.00  0.00    +0.000 A 
ATOM     36  C   UNL     1     -59.997 -52.767 -17.009  0.00  0.00    +0.000 A 
ATOM     37  C   UNL     1     -61.194 -51.041 -15.172  0.00  0.00    +0.000 A 
ATOM     38  C   UNL     1     -59.217 -51.865 -16.284  0.00  0.00    +0.000 A 
ATOM     39  C   UNL     1     -59.815 -51.004 -15.364  0.00  0.00    +0.000 A 
ENDBRANCH  33  34
BRANCH  33  41
ATOM     40  O   UNL     1     -65.054 -55.585 -16.152  0.00  0.00    +0.000 OA
ATOM     41  N   UNL     1     -63.125 -54.570 -16.698  0.00  0.00    +0.000 N 
ATOM     42  C   UNL     1     -64.490 -54.597 -16.614  0.00  0.00    +0.000 C 
ATOM     43  H   UNL     1     -62.675 -55.379 -16.282  0.00  0.00    +0.000 HD
BRANCH  42  44
ATOM     44  C   UNL     1     -65.297 -53.463 -17.120  0.00  0.00    +0.000 A 
ATOM     45  C   UNL     1     -65.777 -53.438 -18.432  0.00  0.00    +0.000 A 
ATOM     46  C   UNL     1     -65.514 -52.369 -16.275  0.00  0.00    +0.000 A 
ATOM     47  C   UNL     1     -66.525 -52.347 -18.878  0.00  0.00    +0.000 A 
ATOM     48  C   UNL     1     -66.260 -51.279 -16.723  0.00  0.00    +0.000 A 
ATOM     49  C   UNL     1     -66.772 -51.274 -18.021  0.00  0.00    +0.000 A 
ENDBRANCH  42  44
ENDBRANCH  33  41
ENDBRANCH  30  33
ENDBRANCH  29  30
ENDBRANCH  27  29
ENDBRANCH  18  27
BRANCH  17  50
ATOM     50  O   UNL     1     -55.775 -55.025 -23.614  0.00  0.00    +0.000 OA
BRANCH  50  52
ATOM     51  O   UNL     1     -53.550 -55.257 -23.550  0.00  0.00    +0.000 OA
ATOM     52  C   UNL     1     -54.633 -55.394 -22.990  0.00  0.00    +0.000 C 
ATOM     53  C   UNL     1     -54.748 -56.049 -21.646  0.00  0.00    +0.000 C 
ENDBRANCH  50  52
ENDBRANCH  17  50
BRANCH   7  54
ATOM     54  O   UNL     1     -60.312 -52.834 -23.278  0.00  0.00    +0.000 OA
BRANCH  54  56
ATOM     55  O   UNL     1     -62.132 -52.485 -24.054  0.00  0.00    +0.000 OA
ATOM     56  C   UNL     1     -61.570 -52.372 -22.970  0.00  0.00    +0.000 C 
BRANCH  56  57
ATOM     57  C   UNL     1     -62.024 -51.505 -21.326  0.00  0.00    +0.000 A 
ATOM     58  C   UNL     1     -61.067 -50.946 -20.373  0.00  0.00    +0.000 A 
ATOM     59  C   UNL     1     -63.328 -51.161 -20.856  0.00  0.00    +0.000 A 
ATOM     60  C   UNL     1     -61.356 -50.200 -19.204  0.00  0.00    +0.000 A 
ATOM     61  C   UNL     1     -63.639 -50.414 -19.685  0.00  0.00    +0.000 A 
ATOM     62  C   UNL     1     -62.654 -49.929 -18.858  0.00  0.00    +0.000 A 
ENDBRANCH  56  57
ENDBRANCH  54  56
ENDBRANCH   7  54
BRANCH   4  63
ATOM     63  O   UNL     1     -60.617 -49.636 -23.378  0.00  0.00    +0.000 OA
BRANCH  63  65
ATOM     64  O   UNL     1     -62.685 -48.795 -23.266  0.00  0.00    +0.000 OA
ATOM     65  C   UNL     1     -61.486 -48.659 -23.033  0.00  0.00    +0.000 C 
ATOM     66  C   UNL     1     -60.962 -47.372 -22.480  0.00  0.00    +0.000 C 
ENDBRANCH  63  65
ENDBRANCH   4  63
TORSDOF 17
ENDMDL
MODEL 2
REMARK VINA RESULT:      -5.0     54.551     58.939
REMARK  Name = 
REMARK  23 active torsions:
REMARK  status: ('A' for Active; 'I' for Inactive)
REMARK    1  A    between atoms: O_2  and  C_17
REMARK    2  A    between atoms: O_2  and  C_36
REMARK    3  A    between atoms: O_3  and  C_20
REMARK    4  A    between atoms: O_3  and  C_37
REMARK    5  A    between atoms: O_4  and  C_21
REMARK    6  A    between atoms: O_5  and  C_22
REMARK    7  A    between atoms: O_6  and  C_30
REMARK    8  A    between atoms: O_6  and  C_39
REMARK    9  A    between atoms: O_8  and  C_31
REMARK   10  A    between atoms: O_8  and  C_40
REMARK   11  A    between atoms: O_13  and  C_42
REMARK   12  A    between atoms: N_15  and  C_46
REMARK   13  A    between atoms: C_18  and  C_29
REMARK   14  A    between atoms: C_24  and  C_33
REMARK   15  A    between atoms: C_24  and  C_34
REMARK   16  A    between atoms: C_32  and  C_35
REMARK   17  A    between atoms: C_36  and  C_38
REMARK   18  A    between atoms: C_37  and  C_41
REMARK   19  A    between atoms: C_39  and  C_43
REMARK   20  A    between atoms: C_40  and  C_42
REMARK   21  A    between atoms: C_42  and  C_46
REMARK   22  A    between atoms: C_46  and  C_50
REMARK   23  A    between atoms: C_53  and  C_56
REMARK                            x       y       z     vdW  Elec       q    Type
REMARK                         _______ _______ _______ _____ _____    ______ ____
ROOT
ATOM      1  O   UNL     1     -63.096 -65.910 -82.735  0.00  0.00    +0.000 OA
ATOM      2  O   UNL     1     -66.095 -60.269 -84.643  0.00  0.00    +0.000 OA
ATOM      3  C   UNL     1     -63.402 -62.545 -82.084  0.00  0.00    +0.000 C 
ATOM      4  C   UNL     1     -63.528 -64.060 -81.749  0.00  0.00    +0.000 C 
ATOM      5  C   UNL     1     -65.000 -62.039 -82.973  0.00  0.00    +0.000 C 
ATOM      6  C   UNL     1     -63.481 -64.600 -83.236  0.00  0.00    +0.000 C 
ATOM      7  C   UNL     1     -62.716 -61.568 -80.651  0.00  0.00    +0.000 C 
ATOM      8  C   UNL     1     -62.297 -59.796 -80.131  0.00  0.00    +0.000 C 
ATOM      9  C   UNL     1     -65.030 -62.956 -84.267  0.00  0.00    +0.000 C 
ATOM     10  C   UNL     1     -64.763 -64.472 -84.026  0.00  0.00    +0.000 C 
ATOM     11  C   UNL     1     -62.728 -58.275 -80.936  0.00  0.00    +0.000 C 
ATOM     12  C   UNL     1     -62.418 -65.179 -81.642  0.00  0.00    +0.000 C 
ATOM     13  C   UNL     1     -65.491 -60.317 -83.550  0.00  0.00    +0.000 C 
ATOM     14  C   UNL     1     -63.019 -59.572 -78.724  0.00  0.00    +0.000 C 
ATOM     15  C   UNL     1     -64.309 -58.163 -81.193  0.00  0.00    +0.000 C 
ATOM     16  C   UNL     1     -66.302 -62.493 -82.189  0.00  0.00    +0.000 C 
ATOM     17  C   UNL     1     -65.171 -58.623 -82.702  0.00  0.00    +0.000 C 
ATOM     18  C   UNL     1     -64.445 -58.858 -78.708  0.00  0.00    +0.000 C 
ATOM     19  C   UNL     1     -65.016 -58.193 -80.014  0.00  0.00    +0.000 C 
ATOM     20  C   UNL     1     -62.327 -57.094 -79.917  0.00  0.00    +0.000 C 
ATOM     21  C   UNL     1     -61.835 -57.752 -82.108  0.00  0.00    +0.000 C 
ATOM     22  C   UNL     1     -66.482 -57.846 -79.940  0.00  0.00    +0.000 C 
ENDROOT
BRANCH   9  23
ATOM     23  O   UNL     1     -64.036 -62.499 -85.184  0.00  0.00    +0.000 OA
ATOM     24  H   UNL     1     -64.513 -62.026 -85.894  0.00  0.00    +0.000 HD
ENDBRANCH   9  23
BRANCH   8  25
ATOM     25  O   UNL     1     -60.880 -59.794 -79.872  0.00  0.00    +0.000 OA
ATOM     26  H   UNL     1     -60.407 -59.897 -80.716  0.00  0.00    +0.000 HD
ENDBRANCH   8  25
BRANCH  18  27
ATOM     27  O   UNL     1     -65.434 -59.840 -78.280  0.00  0.00    +0.000 OA
BRANCH  27  29
ATOM     28  O   UNL     1     -65.021 -60.223 -76.088  0.00  0.00    +0.000 OA
ATOM     29  C   UNL     1     -65.781 -59.830 -76.967  0.00  0.00    +0.000 C 
BRANCH  29  30
ATOM     30  C   UNL     1     -67.239 -59.445 -76.699  0.00  0.00    +0.000 C 
BRANCH  30  31
ATOM     31  O   UNL     1     -67.466 -58.057 -76.426  0.00  0.00    +0.000 OA
ATOM     32  H   UNL     1     -67.972 -57.712 -77.184  0.00  0.00    +0.000 HD
ENDBRANCH  30  31
BRANCH  30  33
ATOM     33  C   UNL     1     -67.763 -60.323 -75.529  0.00  0.00    +0.000 C 
BRANCH  33  34
ATOM     34  C   UNL     1     -69.136 -60.893 -75.859  0.00  0.00    +0.000 A 
ATOM     35  C   UNL     1     -69.738 -60.577 -77.089  0.00  0.00    +0.000 A 
ATOM     36  C   UNL     1     -69.841 -61.704 -74.956  0.00  0.00    +0.000 A 
ATOM     37  C   UNL     1     -71.001 -61.073 -77.414  0.00  0.00    +0.000 A 
ATOM     38  C   UNL     1     -71.104 -62.201 -75.284  0.00  0.00    +0.000 A 
ATOM     39  C   UNL     1     -71.682 -61.887 -76.512  0.00  0.00    +0.000 A 
ENDBRANCH  33  34
BRANCH  33  41
ATOM     40  O   UNL     1     -66.865 -58.720 -72.414  0.00  0.00    +0.000 OA
ATOM     41  N   UNL     1     -67.800 -59.548 -74.282  0.00  0.00    +0.000 N 
ATOM     42  C   UNL     1     -67.025 -59.679 -73.163  0.00  0.00    +0.000 C 
ATOM     43  H   UNL     1     -68.256 -58.644 -74.359  0.00  0.00    +0.000 HD
BRANCH  42  44
ATOM     44  C   UNL     1     -66.338 -60.958 -72.871  0.00  0.00    +0.000 A 
ATOM     45  C   UNL     1     -67.055 -62.143 -72.675  0.00  0.00    +0.000 A 
ATOM     46  C   UNL     1     -64.946 -60.950 -72.722  0.00  0.00    +0.000 A 
ATOM     47  C   UNL     1     -66.373 -63.328 -72.392  0.00  0.00    +0.000 A 
ATOM     48  C   UNL     1     -64.269 -62.135 -72.436  0.00  0.00    +0.000 A 
ATOM     49  C   UNL     1     -64.982 -63.324 -72.281  0.00  0.00    +0.000 A 
ENDBRANCH  42  44
ENDBRANCH  33  41
ENDBRANCH  30  33
ENDBRANCH  29  30
ENDBRANCH  27  29
ENDBRANCH  18  27
BRANCH  17  50
ATOM     50  O   UNL     1     -64.777 -57.600 -83.642  0.00  0.00    +0.000 OA
BRANCH  50  52
ATOM     51  O   UNL     1     -65.156 -55.542 -84.434  0.00  0.00    +0.000 OA
ATOM     52  C   UNL     1     -65.609 -56.618 -84.056  0.00  0.00    +0.000 C 
ATOM     53  C   UNL     1     -67.085 -56.859 -83.953  0.00  0.00    +0.000 C 
ENDBRANCH  50  52
ENDBRANCH  17  50
BRANCH   7  54
ATOM     54  O   UNL     1     -63.972 -61.329 -80.334  0.00  0.00    +0.000 OA
BRANCH  54  56
ATOM     55  O   UNL     1     -62.684 -62.451 -79.276  0.00  0.00    +0.000 OA
ATOM     56  C   UNL     1     -63.874 -62.158 -79.241  0.00  0.00    +0.000 C 
BRANCH  56  57
ATOM     57  C   UNL     1     -65.377 -62.829 -78.263  0.00  0.00    +0.000 A 
ATOM     58  C   UNL     1     -66.748 -62.894 -78.763  0.00  0.00    +0.000 A 
ATOM     59  C   UNL     1     -65.366 -63.472 -76.988  0.00  0.00    +0.000 A 
ATOM     60  C   UNL     1     -67.867 -63.482 -78.122  0.00  0.00    +0.000 A 
ATOM     61  C   UNL     1     -66.479 -64.067 -76.328  0.00  0.00    +0.000 A 
ATOM     62  C   UNL     1     -67.731 -64.076 -76.895  0.00  0.00    +0.000 A 
ENDBRANCH  56  57
ENDBRANCH  54  56
ENDBRANCH   7  54
BRANCH   4  63
ATOM     63  O   UNL     1     -64.752 -64.366 -81.041  0.00  0.00    +0.000 OA
BRANCH  63  65
ATOM     64  O   UNL     1     -64.240 -65.799 -79.404  0.00  0.00    +0.000 OA
ATOM     65  C   UNL     1     -64.973 -65.505 -80.346  0.00  0.00    +0.000 C 
ATOM     66  C   UNL     1     -66.034 -66.452 -80.807  0.00  0.00    +0.000 C 
ENDBRANCH  63  65
ENDBRANCH   4  63
TORSDOF 17
ENDMDL
MODEL 3
REMARK VINA RESULT:      -4.9     32.695     37.603
REMARK  Name = 
REMARK  23 active torsions:
REMARK  status: ('A' for Active; 'I' for Inactive)
REMARK    1  A    between atoms: O_2  and  C_17
REMARK    2  A    between atoms: O_2  and  C_36
REMARK    3  A    between atoms: O_3  and  C_20
REMARK    4  A    between atoms: O_3  and  C_37
REMARK    5  A    between atoms: O_4  and  C_21
REMARK    6  A    between atoms: O_5  and  C_22
REMARK    7  A    between atoms: O_6  and  C_30
REMARK    8  A    between atoms: O_6  and  C_39
REMARK    9  A    between atoms: O_8  and  C_31
REMARK   10  A    between atoms: O_8  and  C_40
REMARK   11  A    between atoms: O_13  and  C_42
REMARK   12  A    between atoms: N_15  and  C_46
REMARK   13  A    between atoms: C_18  and  C_29
REMARK   14  A    between atoms: C_24  and  C_33
REMARK   15  A    between atoms: C_24  and  C_34
REMARK   16  A    between atoms: C_32  and  C_35
REMARK   17  A    between atoms: C_36  and  C_38
REMARK   18  A    between atoms: C_37  and  C_41
REMARK   19  A    between atoms: C_39  and  C_43
REMARK   20  A    between atoms: C_40  and  C_42
REMARK   21  A    between atoms: C_42  and  C_46
REMARK   22  A    between atoms: C_46  and  C_50
REMARK   23  A    between atoms: C_53  and  C_56
REMARK                            x       y       z     vdW  Elec       q    Type
REMARK                         _______ _______ _______ _____ _____    ______ ____
ROOT
ATOM      1  O   UNL     1     -68.899 -41.683 -61.385  0.00  0.00    +0.000 OA
ATOM      2  O   UNL     1     -62.404 -40.258 -60.885  0.00  0.00    +0.000 OA
ATOM      3  C   UNL     1     -65.823 -42.926 -60.469  0.00  0.00    +0.000 C 
ATOM      4  C   UNL     1     -67.295 -42.487 -60.217  0.00  0.00    +0.000 C 
ATOM      5  C   UNL     1     -64.740 -41.383 -60.253  0.00  0.00    +0.000 C 
ATOM      6  C   UNL     1     -67.453 -41.566 -61.495  0.00  0.00    +0.000 C 
ATOM      7  C   UNL     1     -65.423 -44.541 -59.627  0.00  0.00    +0.000 C 
ATOM      8  C   UNL     1     -63.989 -45.742 -59.332  0.00  0.00    +0.000 C 
ATOM      9  C   UNL     1     -65.279 -40.374 -61.352  0.00  0.00    +0.000 C 
ATOM     10  C   UNL     1     -66.826 -40.194 -61.401  0.00  0.00    +0.000 C 
ATOM     11  C   UNL     1     -62.260 -45.502 -59.650  0.00  0.00    +0.000 C 
ATOM     12  C   UNL     1     -68.645 -43.032 -60.832  0.00  0.00    +0.000 C 
ATOM     13  C   UNL     1     -62.864 -41.284 -60.338  0.00  0.00    +0.000 C 
ATOM     14  C   UNL     1     -63.943 -45.986 -57.754  0.00  0.00    +0.000 C 
ATOM     15  C   UNL     1     -61.704 -44.168 -58.951  0.00  0.00    +0.000 C 
ATOM     16  C   UNL     1     -65.036 -40.618 -58.896  0.00  0.00    +0.000 C 
ATOM     17  C   UNL     1     -61.558 -42.551 -59.722  0.00  0.00    +0.000 C 
ATOM     18  C   UNL     1     -62.926 -45.119 -56.882  0.00  0.00    +0.000 C 
ATOM     19  C   UNL     1     -61.845 -44.218 -57.584  0.00  0.00    +0.000 C 
ATOM     20  C   UNL     1     -61.498 -46.748 -58.971  0.00  0.00    +0.000 C 
ATOM     21  C   UNL     1     -61.705 -45.769 -61.086  0.00  0.00    +0.000 C 
ATOM     22  C   UNL     1     -61.176 -43.226 -56.665  0.00  0.00    +0.000 C 
ENDROOT
BRANCH   9  23
ATOM     23  O   UNL     1     -64.873 -40.831 -62.642  0.00  0.00    +0.000 OA
ATOM     24  H   UNL     1     -64.046 -40.353 -62.855  0.00  0.00    +0.000 HD
ENDBRANCH   9  23
BRANCH   8  25
ATOM     25  O   UNL     1     -64.399 -46.988 -59.928  0.00  0.00    +0.000 OA
ATOM     26  H   UNL     1     -63.812 -47.696 -59.608  0.00  0.00    +0.000 HD
ENDBRANCH   8  25
BRANCH  18  27
ATOM     27  O   UNL     1     -63.708 -44.234 -56.027  0.00  0.00    +0.000 OA
BRANCH  27  29
ATOM     28  O   UNL     1     -62.991 -45.160 -54.091  0.00  0.00    +0.000 OA
ATOM     29  C   UNL     1     -63.884 -44.622 -54.738  0.00  0.00    +0.000 C 
BRANCH  29  30
ATOM     30  C   UNL     1     -65.320 -44.481 -54.223  0.00  0.00    +0.000 C 
BRANCH  30  31
ATOM     31  O   UNL     1     -65.500 -43.534 -53.164  0.00  0.00    +0.000 OA
ATOM     32  H   UNL     1     -65.381 -44.031 -52.334  0.00  0.00    +0.000 HD
ENDBRANCH  30  31
BRANCH  30  33
ATOM     33  C   UNL     1     -65.816 -45.888 -53.787  0.00  0.00    +0.000 C 
BRANCH  33  34
ATOM     34  C   UNL     1     -67.282 -46.076 -54.149  0.00  0.00    +0.000 A 
ATOM     35  C   UNL     1     -67.869 -47.347 -54.018  0.00  0.00    +0.000 A 
ATOM     36  C   UNL     1     -68.068 -45.023 -54.645  0.00  0.00    +0.000 A 
ATOM     37  C   UNL     1     -69.207 -47.553 -54.355  0.00  0.00    +0.000 A 
ATOM     38  C   UNL     1     -69.406 -45.231 -54.980  0.00  0.00    +0.000 A 
ATOM     39  C   UNL     1     -69.976 -46.495 -54.833  0.00  0.00    +0.000 A 
ENDBRANCH  33  34
BRANCH  33  41
ATOM     40  O   UNL     1     -64.486 -46.930 -50.589  0.00  0.00    +0.000 OA
ATOM     41  N   UNL     1     -65.601 -46.083 -52.347  0.00  0.00    +0.000 N 
ATOM     42  C   UNL     1     -64.969 -47.112 -51.703  0.00  0.00    +0.000 C 
ATOM     43  H   UNL     1     -65.681 -45.240 -51.787  0.00  0.00    +0.000 HD
BRANCH  42  44
ATOM     44  C   UNL     1     -64.823 -48.431 -52.358  0.00  0.00    +0.000 A 
ATOM     45  C   UNL     1     -63.905 -48.634 -53.393  0.00  0.00    +0.000 A 
ATOM     46  C   UNL     1     -65.679 -49.469 -51.970  0.00  0.00    +0.000 A 
ATOM     47  C   UNL     1     -63.802 -49.889 -53.995  0.00  0.00    +0.000 A 
ATOM     48  C   UNL     1     -65.576 -50.721 -52.575  0.00  0.00    +0.000 A 
ATOM     49  C   UNL     1     -64.631 -50.932 -53.580  0.00  0.00    +0.000 A 
ENDBRANCH  42  44
ENDBRANCH  33  41
ENDBRANCH  30  33
ENDBRANCH  29  30
ENDBRANCH  27  29
ENDBRANCH  18  27
BRANCH  17  50
ATOM     50  O   UNL     1     -60.467 -42.719 -60.653  0.00  0.00    +0.000 OA
BRANCH  50  52
ATOM     51  O   UNL     1     -58.267 -42.650 -61.061  0.00  0.00    +0.000 OA
ATOM     52  C   UNL     1     -59.232 -42.210 -60.443  0.00  0.00    +0.000 C 
ATOM     53  C   UNL     1     -59.076 -41.167 -59.377  0.00  0.00    +0.000 C 
ENDBRANCH  50  52
ENDBRANCH  17  50
BRANCH   7  54
ATOM     54  O   UNL     1     -64.967 -43.804 -58.636  0.00  0.00    +0.000 OA
BRANCH  54  56
ATOM     55  O   UNL     1     -66.034 -43.163 -57.059  0.00  0.00    +0.000 OA
ATOM     56  C   UNL     1     -66.104 -44.049 -57.904  0.00  0.00    +0.000 C 
BRANCH  56  57
ATOM     57  C   UNL     1     -67.190 -45.614 -58.095  0.00  0.00    +0.000 A 
ATOM     58  C   UNL     1     -66.841 -46.948 -57.611  0.00  0.00    +0.000 A 
ATOM     59  C   UNL     1     -68.522 -45.690 -58.603  0.00  0.00    +0.000 A 
ATOM     60  C   UNL     1     -67.656 -48.107 -57.629  0.00  0.00    +0.000 A 
ATOM     61  C   UNL     1     -69.356 -46.844 -58.631  0.00  0.00    +0.000 A 
ATOM     62  C   UNL     1     -68.926 -48.054 -58.142  0.00  0.00    +0.000 A 
ENDBRANCH  56  57
ENDBRANCH  54  56
ENDBRANCH   7  54
BRANCH   4  63
ATOM     63  O   UNL     1     -67.453 -41.792 -58.957  0.00  0.00    +0.000 OA
BRANCH  63  65
ATOM     64  O   UNL     1     -69.059 -40.278 -58.602  0.00  0.00    +0.000 OA
ATOM     65  C   UNL     1     -68.641 -41.421 -58.429  0.00  0.00    +0.000 C 
ATOM     66  C   UNL     1     -69.379 -42.372 -57.541  0.00  0.00    +0.000 C 
ENDBRANCH  63  65
ENDBRANCH   4  63
TORSDOF 17
ENDMDL
MODEL 4
REMARK VINA RESULT:      -4.9     30.062     35.579
REMARK  Name = 
REMARK  23 active torsions:
REMARK  status: ('A' for Active; 'I' for Inactive)
REMARK    1  A    between atoms: O_2  and  C_17
REMARK    2  A    between atoms: O_2  and  C_36
REMARK    3  A    between atoms: O_3  and  C_20
REMARK    4  A    between atoms: O_3  and  C_37
REMARK    5  A    between atoms: O_4  and  C_21
REMARK    6  A    between atoms: O_5  and  C_22
REMARK    7  A    between atoms: O_6  and  C_30
REMARK    8  A    between atoms: O_6  and  C_39
REMARK    9  A    between atoms: O_8  and  C_31
REMARK   10  A    between atoms: O_8  and  C_40
REMARK   11  A    between atoms: O_13  and  C_42
REMARK   12  A    between atoms: N_15  and  C_46
REMARK   13  A    between atoms: C_18  and  C_29
REMARK   14  A    between atoms: C_24  and  C_33
REMARK   15  A    between atoms: C_24  and  C_34
REMARK   16  A    between atoms: C_32  and  C_35
REMARK   17  A    between atoms: C_36  and  C_38
REMARK   18  A    between atoms: C_37  and  C_41
REMARK   19  A    between atoms: C_39  and  C_43
REMARK   20  A    between atoms: C_40  and  C_42
REMARK   21  A    between atoms: C_42  and  C_46
REMARK   22  A    between atoms: C_46  and  C_50
REMARK   23  A    between atoms: C_53  and  C_56
REMARK                            x       y       z     vdW  Elec       q    Type
REMARK                         _______ _______ _______ _____ _____    ______ ____
ROOT
ATOM      1  O   UNL     1     -64.093 -43.757 -48.753  0.00  0.00    +0.000 OA
ATOM      2  O   UNL     1     -69.760 -46.451 -51.008  0.00  0.00    +0.000 OA
ATOM      3  C   UNL     1     -65.418 -46.258 -50.710  0.00  0.00    +0.000 C 
ATOM      4  C   UNL     1     -64.579 -44.974 -50.446  0.00  0.00    +0.000 C 
ATOM      5  C   UNL     1     -67.200 -45.698 -51.043  0.00  0.00    +0.000 C 
ATOM      6  C   UNL     1     -65.256 -44.570 -49.072  0.00  0.00    +0.000 C 
ATOM      7  C   UNL     1     -64.530 -47.452 -51.835  0.00  0.00    +0.000 C 
ATOM      8  C   UNL     1     -64.759 -49.119 -52.704  0.00  0.00    +0.000 C 
ATOM      9  C   UNL     1     -67.626 -44.949 -49.712  0.00  0.00    +0.000 C 
ATOM     10  C   UNL     1     -66.606 -43.899 -49.174  0.00  0.00    +0.000 C 
ATOM     11  C   UNL     1     -66.243 -50.073 -52.895  0.00  0.00    +0.000 C 
ATOM     12  C   UNL     1     -63.314 -44.750 -49.527  0.00  0.00    +0.000 C 
ATOM     13  C   UNL     1     -68.667 -46.777 -51.518  0.00  0.00    +0.000 C 
ATOM     14  C   UNL     1     -64.401 -48.864 -54.239  0.00  0.00    +0.000 C 
ATOM     15  C   UNL     1     -67.427 -49.209 -53.551  0.00  0.00    +0.000 C 
ATOM     16  C   UNL     1     -67.283 -44.553 -52.136  0.00  0.00    +0.000 C 
ATOM     17  C   UNL     1     -68.710 -48.322 -52.659  0.00  0.00    +0.000 C 
ATOM     18  C   UNL     1     -65.594 -48.573 -55.258  0.00  0.00    +0.000 C 
ATOM     19  C   UNL     1     -67.088 -48.760 -54.807  0.00  0.00    +0.000 C 
ATOM     20  C   UNL     1     -65.890 -51.257 -53.928  0.00  0.00    +0.000 C 
ATOM     21  C   UNL     1     -66.691 -51.027 -51.742  0.00  0.00    +0.000 C 
ATOM     22  C   UNL     1     -68.099 -48.153 -55.749  0.00  0.00    +0.000 C 
ENDROOT
BRANCH   9  23
ATOM     23  O   UNL     1     -67.817 -45.911 -48.676  0.00  0.00    +0.000 OA
ATOM     24  H   UNL     1     -67.780 -45.418 -47.832  0.00  0.00    +0.000 HD
ENDBRANCH   9  23
BRANCH   8  25
ATOM     25  O   UNL     1     -63.727 -49.975 -52.177  0.00  0.00    +0.000 OA
ATOM     26  H   UNL     1     -64.089 -50.479 -51.428  0.00  0.00    +0.000 HD
ENDBRANCH   8  25
BRANCH  18  27
ATOM     27  O   UNL     1     -65.470 -47.194 -55.714  0.00  0.00    +0.000 OA
BRANCH  27  29
ATOM     28  O   UNL     1     -63.517 -46.946 -56.830  0.00  0.00    +0.000 OA
ATOM     29  C   UNL     1     -64.743 -46.983 -56.841  0.00  0.00    +0.000 C 
BRANCH  29  30
ATOM     30  C   UNL     1     -65.577 -46.638 -58.079  0.00  0.00    +0.000 C 
BRANCH  30  31
ATOM     31  O   UNL     1     -66.040 -47.760 -58.838  0.00  0.00    +0.000 OA
ATOM     32  H   UNL     1     -65.655 -47.662 -59.728  0.00  0.00    +0.000 HD
ENDBRANCH  30  31
BRANCH  30  33
ATOM     33  C   UNL     1     -64.739 -45.683 -58.974  0.00  0.00    +0.000 C 
BRANCH  33  34
ATOM     34  C   UNL     1     -65.639 -44.668 -59.666  0.00  0.00    +0.000 A 
ATOM     35  C   UNL     1     -66.883 -45.081 -60.174  0.00  0.00    +0.000 A 
ATOM     36  C   UNL     1     -65.253 -43.330 -59.843  0.00  0.00    +0.000 A 
ATOM     37  C   UNL     1     -67.724 -44.177 -60.824  0.00  0.00    +0.000 A 
ATOM     38  C   UNL     1     -66.096 -42.427 -60.491  0.00  0.00    +0.000 A 
ATOM     39  C   UNL     1     -67.332 -42.849 -60.980  0.00  0.00    +0.000 A 
ENDBRANCH  33  34
BRANCH  33  41
ATOM     40  O   UNL     1     -62.094 -47.484 -60.659  0.00  0.00    +0.000 OA
ATOM     41  N   UNL     1     -63.961 -46.451 -59.955  0.00  0.00    +0.000 N 
ATOM     42  C   UNL     1     -62.605 -46.502 -60.130  0.00  0.00    +0.000 C 
ATOM     43  H   UNL     1     -64.455 -47.238 -60.366  0.00  0.00    +0.000 HD
BRANCH  42  44
ATOM     44  C   UNL     1     -61.744 -45.400 -59.643  0.00  0.00    +0.000 A 
ATOM     45  C   UNL     1     -61.012 -45.517 -58.458  0.00  0.00    +0.000 A 
ATOM     46  C   UNL     1     -61.729 -44.197 -60.359  0.00  0.00    +0.000 A 
ATOM     47  C   UNL     1     -60.219 -44.453 -58.024  0.00  0.00    +0.000 A 
ATOM     48  C   UNL     1     -60.937 -43.136 -59.922  0.00  0.00    +0.000 A 
ATOM     49  C   UNL     1     -60.176 -43.269 -58.760  0.00  0.00    +0.000 A 
ENDBRANCH  42  44
ENDBRANCH  33  41
ENDBRANCH  30  33
ENDBRANCH  29  30
ENDBRANCH  27  29
ENDBRANCH  18  27
BRANCH  17  50
ATOM     50  O   UNL     1     -69.545 -49.376 -52.132  0.00  0.00    +0.000 OA
BRANCH  50  52
ATOM     51  O   UNL     1     -71.754 -49.055 -52.294  0.00  0.00    +0.000 OA
ATOM     52  C   UNL     1     -70.758 -49.682 -52.644  0.00  0.00    +0.000 C 
ATOM     53  C   UNL     1     -70.851 -50.857 -53.570  0.00  0.00    +0.000 C 
ENDBRANCH  50  52
ENDBRANCH  17  50
BRANCH   7  54
ATOM     54  O   UNL     1     -65.205 -46.886 -52.814  0.00  0.00    +0.000 OA
BRANCH  54  56
ATOM     55  O   UNL     1     -63.223 -46.740 -52.520  0.00  0.00    +0.000 OA
ATOM     56  C   UNL     1     -64.074 -46.234 -53.244  0.00  0.00    +0.000 C 
BRANCH  56  57
ATOM     57  C   UNL     1     -64.084 -44.726 -54.422  0.00  0.00    +0.000 A 
ATOM     58  C   UNL     1     -62.904 -44.140 -55.055  0.00  0.00    +0.000 A 
ATOM     59  C   UNL     1     -65.222 -44.046 -54.953  0.00  0.00    +0.000 A 
ATOM     60  C   UNL     1     -62.874 -43.100 -56.017  0.00  0.00    +0.000 A 
ATOM     61  C   UNL     1     -65.212 -42.999 -55.917  0.00  0.00    +0.000 A 
ATOM     62  C   UNL     1     -64.039 -42.526 -56.454  0.00  0.00    +0.000 A 
ENDBRANCH  56  57
ENDBRANCH  54  56
ENDBRANCH   7  54
BRANCH   4  63
ATOM     63  O   UNL     1     -64.733 -43.992 -51.498  0.00  0.00    +0.000 OA
BRANCH  63  65
ATOM     64  O   UNL     1     -62.769 -42.962 -51.778  0.00  0.00    +0.000 OA
ATOM     65  C   UNL     1     -63.984 -42.872 -51.617  0.00  0.00    +0.000 C 
ATOM     66  C   UNL     1     -64.629 -41.535 -51.433  0.00  0.00    +0.000 C 
ENDBRANCH  63  65
ENDBRANCH   4  63
TORSDOF 17
ENDMDL
MODEL 5
REMARK VINA RESULT:      -4.8     29.489     34.983
REMARK  Name = 
REMARK  23 active torsions:
REMARK  status: ('A' for Active; 'I' for Inactive)
REMARK    1  A    between atoms: O_2  and  C_17
REMARK    2  A    between atoms: O_2  and  C_36
REMARK    3  A    between atoms: O_3  and  C_20
REMARK    4  A    between atoms: O_3  and  C_37
REMARK    5  A    between atoms: O_4  and  C_21
REMARK    6  A    between atoms: O_5  and  C_22
REMARK    7  A    between atoms: O_6  and  C_30
REMARK    8  A    between atoms: O_6  and  C_39
REMARK    9  A    between atoms: O_8  and  C_31
REMARK   10  A    between atoms: O_8  and  C_40
REMARK   11  A    between atoms: O_13  and  C_42
REMARK   12  A    between atoms: N_15  and  C_46
REMARK   13  A    between atoms: C_18  and  C_29
REMARK   14  A    between atoms: C_24  and  C_33
REMARK   15  A    between atoms: C_24  and  C_34
REMARK   16  A    between atoms: C_32  and  C_35
REMARK   17  A    between atoms: C_36  and  C_38
REMARK   18  A    between atoms: C_37  and  C_41
REMARK   19  A    between atoms: C_39  and  C_43
REMARK   20  A    between atoms: C_40  and  C_42
REMARK   21  A    between atoms: C_42  and  C_46
REMARK   22  A    between atoms: C_46  and  C_50
REMARK   23  A    between atoms: C_53  and  C_56
REMARK                            x       y       z     vdW  Elec       q    Type
REMARK                         _______ _______ _______ _____ _____    ______ ____
ROOT
ATOM      1  O   UNL     1     -62.155 -44.918 -49.042  0.00  0.00    +0.000 OA
ATOM      2  O   UNL     1     -68.774 -45.719 -49.094  0.00  0.00    +0.000 OA
ATOM      3  C   UNL     1     -64.739 -46.779 -50.348  0.00  0.00    +0.000 C 
ATOM      4  C   UNL     1     -63.525 -45.807 -50.426  0.00  0.00    +0.000 C 
ATOM      5  C   UNL     1     -66.281 -45.716 -50.046  0.00  0.00    +0.000 C 
ATOM      6  C   UNL     1     -63.540 -45.343 -48.912  0.00  0.00    +0.000 C 
ATOM      7  C   UNL     1     -64.680 -48.077 -51.685  0.00  0.00    +0.000 C 
ATOM      8  C   UNL     1     -65.668 -49.537 -52.377  0.00  0.00    +0.000 C 
ATOM      9  C   UNL     1     -65.986 -44.987 -48.668  0.00  0.00    +0.000 C 
ATOM     10  C   UNL     1     -64.585 -44.314 -48.548  0.00  0.00    +0.000 C 
ATOM     11  C   UNL     1     -67.336 -50.017 -52.012  0.00  0.00    +0.000 C 
ATOM     12  C   UNL     1     -62.014 -46.023 -50.016  0.00  0.00    +0.000 C 
ATOM     13  C   UNL     1     -68.068 -46.296 -49.949  0.00  0.00    +0.000 C 
ATOM     14  C   UNL     1     -65.800 -49.268 -53.946  0.00  0.00    +0.000 C 
ATOM     15  C   UNL     1     -68.367 -48.805 -52.230  0.00  0.00    +0.000 C 
ATOM     16  C   UNL     1     -66.396 -44.507 -51.066  0.00  0.00    +0.000 C 
ATOM     17  C   UNL     1     -68.948 -47.669 -50.965  0.00  0.00    +0.000 C 
ATOM     18  C   UNL     1     -67.130 -48.573 -54.488  0.00  0.00    +0.000 C 
ATOM     19  C   UNL     1     -68.364 -48.368 -53.535  0.00  0.00    +0.000 C 
ATOM     20  C   UNL     1     -67.720 -51.165 -53.075  0.00  0.00    +0.000 C 
ATOM     21  C   UNL     1     -67.618 -50.898 -50.753  0.00  0.00    +0.000 C 
ATOM     22  C   UNL     1     -69.413 -47.428 -54.075  0.00  0.00    +0.000 C 
ENDROOT
BRANCH   9  23
ATOM     23  O   UNL     1     -66.082 -45.939 -47.609  0.00  0.00    +0.000 OA
ATOM     24  H   UNL     1     -65.165 -46.116 -47.314  0.00  0.00    +0.000 HD
ENDBRANCH   9  23
BRANCH   8  25
ATOM     25  O   UNL     1     -64.814 -50.688 -52.228  0.00  0.00    +0.000 OA
ATOM     26  H   UNL     1     -64.997 -51.310 -52.954  0.00  0.00    +0.000 HD
ENDBRANCH   8  25
BRANCH  18  27
ATOM     27  O   UNL     1     -66.774 -47.252 -54.990  0.00  0.00    +0.000 OA
BRANCH  27  29
ATOM     28  O   UNL     1     -65.334 -47.823 -56.639  0.00  0.00    +0.000 OA
ATOM     29  C   UNL     1     -66.311 -47.184 -56.265  0.00  0.00    +0.000 C 
BRANCH  29  30
ATOM     30  C   UNL     1     -67.004 -46.132 -57.136  0.00  0.00    +0.000 C 
BRANCH  30  31
ATOM     31  O   UNL     1     -68.254 -46.536 -57.707  0.00  0.00    +0.000 OA
ATOM     32  H   UNL     1     -68.175 -46.383 -58.667  0.00  0.00    +0.000 HD
ENDBRANCH  30  31
BRANCH  30  33
ATOM     33  C   UNL     1     -66.011 -45.698 -58.250  0.00  0.00    +0.000 C 
BRANCH  33  34
ATOM     34  C   UNL     1     -66.215 -44.233 -58.610  0.00  0.00    +0.000 A 
ATOM     35  C   UNL     1     -67.191 -43.484 -57.930  0.00  0.00    +0.000 A 
ATOM     36  C   UNL     1     -65.478 -43.606 -59.627  0.00  0.00    +0.000 A 
ATOM     37  C   UNL     1     -67.410 -42.143 -58.246  0.00  0.00    +0.000 A 
ATOM     38  C   UNL     1     -65.697 -42.264 -59.941  0.00  0.00    +0.000 A 
ATOM     39  C   UNL     1     -66.661 -41.532 -59.249  0.00  0.00    +0.000 A 
ENDBRANCH  33  34
BRANCH  33  41
ATOM     40  O   UNL     1     -65.556 -48.279 -60.742  0.00  0.00    +0.000 OA
ATOM     41  N   UNL     1     -66.161 -46.556 -59.433  0.00  0.00    +0.000 N 
ATOM     42  C   UNL     1     -65.215 -47.304 -60.079  0.00  0.00    +0.000 C 
ATOM     43  H   UNL     1     -67.114 -46.846 -59.629  0.00  0.00    +0.000 HD
BRANCH  42  44
ATOM     44  C   UNL     1     -63.778 -46.974 -59.947  0.00  0.00    +0.000 A 
ATOM     45  C   UNL     1     -63.246 -46.502 -58.743  0.00  0.00    +0.000 A 
ATOM     46  C   UNL     1     -62.962 -47.076 -61.080  0.00  0.00    +0.000 A 
ATOM     47  C   UNL     1     -61.887 -46.191 -58.659  0.00  0.00    +0.000 A 
ATOM     48  C   UNL     1     -61.606 -46.763 -60.993  0.00  0.00    +0.000 A 
ATOM     49  C   UNL     1     -61.068 -46.330 -59.780  0.00  0.00    +0.000 A 
ENDBRANCH  42  44
ENDBRANCH  33  41
ENDBRANCH  30  33
ENDBRANCH  29  30
ENDBRANCH  27  29
ENDBRANCH  18  27
BRANCH  17  50
ATOM     50  O   UNL     1     -69.820 -48.485 -50.153  0.00  0.00    +0.000 OA
BRANCH  50  52
ATOM     51  O   UNL     1     -71.714 -49.574 -50.639  0.00  0.00    +0.000 OA
ATOM     52  C   UNL     1     -71.161 -48.525 -50.320  0.00  0.00    +0.000 C 
ATOM     53  C   UNL     1     -71.922 -47.241 -50.191  0.00  0.00    +0.000 C 
ENDBRANCH  50  52
ENDBRANCH  17  50
BRANCH   7  54
ATOM     54  O   UNL     1     -65.453 -47.267 -52.376  0.00  0.00    +0.000 OA
BRANCH  54  56
ATOM     55  O   UNL     1     -63.551 -47.736 -52.825  0.00  0.00    +0.000 OA
ATOM     56  C   UNL     1     -64.405 -46.942 -53.206  0.00  0.00    +0.000 C 
BRANCH  56  57
ATOM     57  C   UNL     1     -64.370 -45.402 -54.341  0.00  0.00    +0.000 A 
ATOM     58  C   UNL     1     -65.288 -44.268 -54.254  0.00  0.00    +0.000 A 
ATOM     59  C   UNL     1     -63.392 -45.072 -55.327  0.00  0.00    +0.000 A 
ATOM     60  C   UNL     1     -65.233 -43.061 -54.995  0.00  0.00    +0.000 A 
ATOM     61  C   UNL     1     -63.320 -43.867 -56.082  0.00  0.00    +0.000 A 
ATOM     62  C   UNL     1     -64.238 -42.858 -55.916  0.00  0.00    +0.000 A 
ENDBRANCH  56  57
ENDBRANCH  54  56
ENDBRANCH   7  54
BRANCH   4  63
ATOM     63  O   UNL     1     -63.737 -44.740 -51.379  0.00  0.00    +0.000 OA
BRANCH  63  65
ATOM     64  O   UNL     1     -61.781 -44.298 -52.368  0.00  0.00    +0.000 OA
ATOM     65  C   UNL     1     -62.780 -43.876 -51.789  0.00  0.00    +0.000 C 
ATOM     66  C   UNL     1     -62.893 -42.429 -51.429  0.00  0.00    +0.000 C 
ENDBRANCH  63  65
ENDBRANCH   4  63
TORSDOF 17
ENDMDL
MODEL 6
REMARK VINA RESULT:      -4.8     54.212     58.564
REMARK  Name = 
REMARK  23 active torsions:
REMARK  status: ('A' for Active; 'I' for Inactive)
REMARK    1  A    between atoms: O_2  and  C_17
REMARK    2  A    between atoms: O_2  and  C_36
REMARK    3  A    between atoms: O_3  and  C_20
REMARK    4  A    between atoms: O_3  and  C_37
REMARK    5  A    between atoms: O_4  and  C_21
REMARK    6  A    between atoms: O_5  and  C_22
REMARK    7  A    between atoms: O_6  and  C_30
REMARK    8  A    between atoms: O_6  and  C_39
REMARK    9  A    between atoms: O_8  and  C_31
REMARK   10  A    between atoms: O_8  and  C_40
REMARK   11  A    between atoms: O_13  and  C_42
REMARK   12  A    between atoms: N_15  and  C_46
REMARK   13  A    between atoms: C_18  and  C_29
REMARK   14  A    between atoms: C_24  and  C_33
REMARK   15  A    between atoms: C_24  and  C_34
REMARK   16  A    between atoms: C_32  and  C_35
REMARK   17  A    between atoms: C_36  and  C_38
REMARK   18  A    between atoms: C_37  and  C_41
REMARK   19  A    between atoms: C_39  and  C_43
REMARK   20  A    between atoms: C_40  and  C_42
REMARK   21  A    between atoms: C_42  and  C_46
REMARK   22  A    between atoms: C_46  and  C_50
REMARK   23  A    between atoms: C_53  and  C_56
REMARK                            x       y       z     vdW  Elec       q    Type
REMARK                         _______ _______ _______ _____ _____    ______ ____
ROOT
ATOM      1  O   UNL     1     -63.581 -64.987 -83.930  0.00  0.00    +0.000 OA
ATOM      2  O   UNL     1     -66.724 -59.115 -84.231  0.00  0.00    +0.000 OA
ATOM      3  C   UNL     1     -63.738 -61.825 -82.583  0.00  0.00    +0.000 C 
ATOM      4  C   UNL     1     -63.841 -63.378 -82.543  0.00  0.00    +0.000 C 
ATOM      5  C   UNL     1     -65.436 -61.171 -83.119  0.00  0.00    +0.000 C 
ATOM      6  C   UNL     1     -64.010 -63.608 -84.100  0.00  0.00    +0.000 C 
ATOM      7  C   UNL     1     -62.843 -61.147 -81.093  0.00  0.00    +0.000 C 
ATOM      8  C   UNL     1     -62.326 -59.510 -80.293  0.00  0.00    +0.000 C 
ATOM      9  C   UNL     1     -65.662 -61.809 -84.553  0.00  0.00    +0.000 C 
ATOM     10  C   UNL     1     -65.388 -63.340 -84.661  0.00  0.00    +0.000 C 
ATOM     11  C   UNL     1     -62.841 -57.864 -80.709  0.00  0.00    +0.000 C 
ATOM     12  C   UNL     1     -62.745 -64.482 -82.818  0.00  0.00    +0.000 C 
ATOM     13  C   UNL     1     -65.975 -59.374 -83.265  0.00  0.00    +0.000 C 
ATOM     14  C   UNL     1     -62.841 -59.582 -78.783  0.00  0.00    +0.000 C 
ATOM     15  C   UNL     1     -64.440 -57.723 -80.714  0.00  0.00    +0.000 C 
ATOM     16  C   UNL     1     -66.623 -61.789 -82.268  0.00  0.00    +0.000 C 
ATOM     17  C   UNL     1     -65.512 -57.881 -82.149  0.00  0.00    +0.000 C 
ATOM     18  C   UNL     1     -64.240 -58.903 -78.424  0.00  0.00    +0.000 C 
ATOM     19  C   UNL     1     -64.976 -57.997 -79.478  0.00  0.00    +0.000 C 
ATOM     20  C   UNL     1     -62.283 -56.907 -79.540  0.00  0.00    +0.000 C 
ATOM     21  C   UNL     1     -62.112 -57.106 -81.865  0.00  0.00    +0.000 C 
ATOM     22  C   UNL     1     -66.412 -57.689 -79.132  0.00  0.00    +0.000 C 
ENDROOT
BRANCH   9  23
ATOM     23  O   UNL     1     -64.798 -61.167 -85.490  0.00  0.00    +0.000 OA
ATOM     24  H   UNL     1     -65.153 -60.264 -85.618  0.00  0.00    +0.000 HD
ENDBRANCH   9  23
BRANCH   8  25
ATOM     25  O   UNL     1     -60.887 -59.543 -80.239  0.00  0.00    +0.000 OA
ATOM     26  H   UNL     1     -60.612 -60.292 -79.681  0.00  0.00    +0.000 HD
ENDBRANCH   8  25
BRANCH  18  27
ATOM     27  O   UNL     1     -65.175 -59.963 -78.067  0.00  0.00    +0.000 OA
BRANCH  27  29
ATOM     28  O   UNL     1     -64.285 -60.577 -76.080  0.00  0.00    +0.000 OA
ATOM     29  C   UNL     1     -65.268 -60.282 -76.751  0.00  0.00    +0.000 C 
BRANCH  29  30
ATOM     30  C   UNL     1     -66.702 -60.398 -76.226  0.00  0.00    +0.000 C 
BRANCH  30  31
ATOM     31  O   UNL     1     -67.575 -59.321 -76.585  0.00  0.00    +0.000 OA
ATOM     32  H   UNL     1     -67.005 -58.625 -76.961  0.00  0.00    +0.000 HD
ENDBRANCH  30  31
BRANCH  30  33
ATOM     33  C   UNL     1     -66.639 -60.557 -74.681  0.00  0.00    +0.000 C 
BRANCH  33  34
ATOM     34  C   UNL     1     -66.875 -62.007 -74.281  0.00  0.00    +0.000 A 
ATOM     35  C   UNL     1     -68.170 -62.547 -74.371  0.00  0.00    +0.000 A 
ATOM     36  C   UNL     1     -65.842 -62.821 -73.790  0.00  0.00    +0.000 A 
ATOM     37  C   UNL     1     -68.420 -63.868 -73.998  0.00  0.00    +0.000 A 
ATOM     38  C   UNL     1     -66.093 -64.143 -73.420  0.00  0.00    +0.000 A 
ATOM     39  C   UNL     1     -67.381 -64.667 -73.526  0.00  0.00    +0.000 A 
ENDBRANCH  33  34
BRANCH  33  41
ATOM     40  O   UNL     1     -68.271 -58.281 -72.393  0.00  0.00    +0.000 OA
ATOM     41  N   UNL     1     -67.613 -59.668 -74.034  0.00  0.00    +0.000 N 
ATOM     42  C   UNL     1     -67.730 -59.335 -72.712  0.00  0.00    +0.000 C 
ATOM     43  H   UNL     1     -68.072 -59.014 -74.661  0.00  0.00    +0.000 HD
BRANCH  42  44
ATOM     44  C   UNL     1     -67.166 -60.216 -71.664  0.00  0.00    +0.000 A 
ATOM     45  C   UNL     1     -65.817 -60.149 -71.303  0.00  0.00    +0.000 A 
ATOM     46  C   UNL     1     -67.999 -61.179 -71.082  0.00  0.00    +0.000 A 
ATOM     47  C   UNL     1     -65.318 -61.003 -70.318  0.00  0.00    +0.000 A 
ATOM     48  C   UNL     1     -67.497 -62.032 -70.099  0.00  0.00    +0.000 A 
ATOM     49  C   UNL     1     -66.160 -61.936 -69.712  0.00  0.00    +0.000 A 
ENDBRANCH  42  44
ENDBRANCH  33  41
ENDBRANCH  30  33
ENDBRANCH  29  30
ENDBRANCH  27  29
ENDBRANCH  18  27
BRANCH  17  50
ATOM     50  O   UNL     1     -65.236 -56.686 -82.910  0.00  0.00    +0.000 OA
BRANCH  50  52
ATOM     51  O   UNL     1     -67.274 -55.856 -83.319  0.00  0.00    +0.000 OA
ATOM     52  C   UNL     1     -66.104 -55.654 -83.005  0.00  0.00    +0.000 C 
ATOM     53  C   UNL     1     -65.571 -54.267 -82.805  0.00  0.00    +0.000 C 
ENDBRANCH  50  52
ENDBRANCH  17  50
BRANCH   7  54
ATOM     54  O   UNL     1     -64.038 -60.992 -80.562  0.00  0.00    +0.000 OA
BRANCH  54  56
ATOM     55  O   UNL     1     -62.631 -62.278 -79.927  0.00  0.00    +0.000 OA
ATOM     56  C   UNL     1     -63.809 -62.034 -79.694  0.00  0.00    +0.000 C 
BRANCH  56  57
ATOM     57  C   UNL     1     -65.184 -62.943 -78.720  0.00  0.00    +0.000 A 
ATOM     58  C   UNL     1     -66.616 -62.844 -78.990  0.00  0.00    +0.000 A 
ATOM     59  C   UNL     1     -65.018 -63.930 -77.701  0.00  0.00    +0.000 A 
ATOM     60  C   UNL     1     -67.658 -63.580 -78.372  0.00  0.00    +0.000 A 
ATOM     61  C   UNL     1     -66.051 -64.678 -77.068  0.00  0.00    +0.000 A 
ATOM     62  C   UNL     1     -67.372 -64.508 -77.405  0.00  0.00    +0.000 A 
ENDBRANCH  56  57
ENDBRANCH  54  56
ENDBRANCH   7  54
BRANCH   4  63
ATOM     63  O   UNL     1     -64.959 -63.834 -81.747  0.00  0.00    +0.000 OA
BRANCH  63  65
ATOM     64  O   UNL     1     -64.307 -65.649 -80.616  0.00  0.00    +0.000 OA
ATOM     65  C   UNL     1     -65.141 -65.111 -81.341  0.00  0.00    +0.000 C 
ATOM     66  C   UNL     1     -66.298 -65.894 -81.876  0.00  0.00    +0.000 C 
ENDBRANCH  63  65
ENDBRANCH   4  63
TORSDOF 17
ENDMDL
MODEL 7
REMARK VINA RESULT:      -4.7     13.341     16.581
REMARK  Name = 
REMARK  23 active torsions:
REMARK  status: ('A' for Active; 'I' for Inactive)
REMARK    1  A    between atoms: O_2  and  C_17
REMARK    2  A    between atoms: O_2  and  C_36
REMARK    3  A    between atoms: O_3  and  C_20
REMARK    4  A    between atoms: O_3  and  C_37
REMARK    5  A    between atoms: O_4  and  C_21
REMARK    6  A    between atoms: O_5  and  C_22
REMARK    7  A    between atoms: O_6  and  C_30
REMARK    8  A    between atoms: O_6  and  C_39
REMARK    9  A    between atoms: O_8  and  C_31
REMARK   10  A    between atoms: O_8  and  C_40
REMARK   11  A    between atoms: O_13  and  C_42
REMARK   12  A    between atoms: N_15  and  C_46
REMARK   13  A    between atoms: C_18  and  C_29
REMARK   14  A    between atoms: C_24  and  C_33
REMARK   15  A    between atoms: C_24  and  C_34
REMARK   16  A    between atoms: C_32  and  C_35
REMARK   17  A    between atoms: C_36  and  C_38
REMARK   18  A    between atoms: C_37  and  C_41
REMARK   19  A    between atoms: C_39  and  C_43
REMARK   20  A    between atoms: C_40  and  C_42
REMARK   21  A    between atoms: C_42  and  C_46
REMARK   22  A    between atoms: C_46  and  C_50
REMARK   23  A    between atoms: C_53  and  C_56
REMARK                            x       y       z     vdW  Elec       q    Type
REMARK                         _______ _______ _______ _____ _____    ______ ____
ROOT
ATOM      1  O   UNL     1     -68.958 -58.157 -35.783  0.00  0.00    +0.000 OA
ATOM      2  O   UNL     1     -74.340 -54.303 -34.977  0.00  0.00    +0.000 OA
ATOM      3  C   UNL     1     -70.611 -56.081 -33.592  0.00  0.00    +0.000 C 
ATOM      4  C   UNL     1     -70.018 -57.440 -34.067  0.00  0.00    +0.000 C 
ATOM      5  C   UNL     1     -72.372 -55.970 -34.290  0.00  0.00    +0.000 C 
ATOM      6  C   UNL     1     -69.938 -57.096 -35.611  0.00  0.00    +0.000 C 
ATOM      7  C   UNL     1     -70.237 -55.746 -31.796  0.00  0.00    +0.000 C 
ATOM      8  C   UNL     1     -70.566 -54.483 -30.424  0.00  0.00    +0.000 C 
ATOM      9  C   UNL     1     -72.171 -56.038 -35.861  0.00  0.00    +0.000 C 
ATOM     10  C   UNL     1     -71.240 -57.178 -36.374  0.00  0.00    +0.000 C 
ATOM     11  C   UNL     1     -71.720 -53.136 -30.414  0.00  0.00    +0.000 C 
ATOM     12  C   UNL     1     -68.528 -57.844 -34.402  0.00  0.00    +0.000 C 
ATOM     13  C   UNL     1     -73.636 -54.609 -33.990  0.00  0.00    +0.000 C 
ATOM     14  C   UNL     1     -71.120 -55.324 -29.183  0.00  0.00    +0.000 C 
ATOM     15  C   UNL     1     -73.210 -53.623 -30.760  0.00  0.00    +0.000 C 
ATOM     16  C   UNL     1     -73.229 -57.269 -33.987  0.00  0.00    +0.000 C 
ATOM     17  C   UNL     1     -73.977 -53.610 -32.385  0.00  0.00    +0.000 C 
ATOM     18  C   UNL     1     -72.699 -55.424 -28.978  0.00  0.00    +0.000 C 
ATOM     19  C   UNL     1     -73.670 -54.536 -29.839  0.00  0.00    +0.000 C 
ATOM     20  C   UNL     1     -71.743 -52.571 -28.906  0.00  0.00    +0.000 C 
ATOM     21  C   UNL     1     -71.308 -51.775 -31.063  0.00  0.00    +0.000 C 
ATOM     22  C   UNL     1     -75.117 -54.958 -29.771  0.00  0.00    +0.000 C 
ENDROOT
BRANCH   9  23
ATOM     23  O   UNL     1     -71.607 -54.807 -36.312  0.00  0.00    +0.000 OA
ATOM     24  H   UNL     1     -71.920 -54.680 -37.230  0.00  0.00    +0.000 HD
ENDBRANCH   9  23
BRANCH   8  25
ATOM     25  O   UNL     1     -69.271 -53.984 -30.038  0.00  0.00    +0.000 OA
ATOM     26  H   UNL     1     -68.656 -54.100 -30.783  0.00  0.00    +0.000 HD
ENDBRANCH   8  25
BRANCH  18  27
ATOM     27  O   UNL     1     -73.094 -56.808 -29.208  0.00  0.00    +0.000 OA
BRANCH  27  29
ATOM     28  O   UNL     1     -74.525 -58.180 -28.117  0.00  0.00    +0.000 OA
ATOM     29  C   UNL     1     -73.490 -57.522 -28.123  0.00  0.00    +0.000 C 
BRANCH  29  30
ATOM     30  C   UNL     1     -72.632 -57.305 -26.873  0.00  0.00    +0.000 C 
BRANCH  30  31
ATOM     31  O   UNL     1     -71.236 -57.585 -27.032  0.00  0.00    +0.000 OA
ATOM     32  H   UNL     1     -71.056 -58.379 -26.495  0.00  0.00    +0.000 HD
ENDBRANCH  30  31
BRANCH  30  33
ATOM     33  C   UNL     1     -73.230 -58.160 -25.722  0.00  0.00    +0.000 C 
BRANCH  33  34
ATOM     34  C   UNL     1     -73.470 -57.304 -24.486  0.00  0.00    +0.000 A 
ATOM     35  C   UNL     1     -73.025 -57.761 -23.233  0.00  0.00    +0.000 A 
ATOM     36  C   UNL     1     -74.153 -56.079 -24.549  0.00  0.00    +0.000 A 
ATOM     37  C   UNL     1     -73.241 -57.005 -22.080  0.00  0.00    +0.000 A 
ATOM     38  C   UNL     1     -74.366 -55.324 -23.395  0.00  0.00    +0.000 A 
ATOM     39  C   UNL     1     -73.909 -55.785 -22.162  0.00  0.00    +0.000 A 
ENDBRANCH  33  34
BRANCH  33  41
ATOM     40  O   UNL     1     -71.741 -61.452 -25.568  0.00  0.00    +0.000 OA
ATOM     41  N   UNL     1     -72.350 -59.295 -25.414  0.00  0.00    +0.000 N 
ATOM     42  C   UNL     1     -72.639 -60.632 -25.404  0.00  0.00    +0.000 C 
ATOM     43  H   UNL     1     -71.357 -59.093 -25.486  0.00  0.00    +0.000 HD
BRANCH  42  44
ATOM     44  C   UNL     1     -74.036 -61.096 -25.245  0.00  0.00    +0.000 A 
ATOM     45  C   UNL     1     -74.828 -61.416 -26.352  0.00  0.00    +0.000 A 
ATOM     46  C   UNL     1     -74.582 -61.144 -23.957  0.00  0.00    +0.000 A 
ATOM     47  C   UNL     1     -76.145 -61.841 -26.164  0.00  0.00    +0.000 A 
ATOM     48  C   UNL     1     -75.898 -61.566 -23.772  0.00  0.00    +0.000 A 
ATOM     49  C   UNL     1     -76.675 -61.923 -24.876  0.00  0.00    +0.000 A 
ENDBRANCH  42  44
ENDBRANCH  33  41
ENDBRANCH  30  33
ENDBRANCH  29  30
ENDBRANCH  27  29
ENDBRANCH  18  27
BRANCH  17  50
ATOM     50  O   UNL     1     -74.197 -52.206 -32.644  0.00  0.00    +0.000 OA
BRANCH  50  52
ATOM     51  O   UNL     1     -75.550 -50.441 -32.396  0.00  0.00    +0.000 OA
ATOM     52  C   UNL     1     -75.423 -51.638 -32.639  0.00  0.00    +0.000 C 
ATOM     53  C   UNL     1     -76.610 -52.529 -32.851  0.00  0.00    +0.000 C 
ENDBRANCH  50  52
ENDBRANCH  17  50
BRANCH   7  54
ATOM     54  O   UNL     1     -71.416 -56.276 -31.548  0.00  0.00    +0.000 OA
BRANCH  54  56
ATOM     55  O   UNL     1     -69.637 -57.095 -31.098  0.00  0.00    +0.000 OA
ATOM     56  C   UNL     1     -70.823 -57.394 -31.009  0.00  0.00    +0.000 C 
BRANCH  56  57
ATOM     57  C   UNL     1     -71.754 -59.017 -30.608  0.00  0.00    +0.000 A 
ATOM     58  C   UNL     1     -71.411 -59.943 -29.531  0.00  0.00    +0.000 A 
ATOM     59  C   UNL     1     -72.967 -59.490 -31.194  0.00  0.00    +0.000 A 
ATOM     60  C   UNL     1     -72.133 -61.093 -29.126  0.00  0.00    +0.000 A 
ATOM     61  C   UNL     1     -73.706 -60.643 -30.803  0.00  0.00    +0.000 A 
ATOM     62  C   UNL     1     -73.293 -61.445 -29.767  0.00  0.00    +0.000 A 
ENDBRANCH  56  57
ENDBRANCH  54  56
ENDBRANCH   7  54
BRANCH   4  63
ATOM     63  O   UNL     1     -70.881 -58.556 -33.749  0.00  0.00    +0.000 OA
BRANCH  63  65
ATOM     64  O   UNL     1     -69.653 -60.223 -32.904  0.00  0.00    +0.000 OA
ATOM     65  C   UNL     1     -70.486 -59.850 -33.728  0.00  0.00    +0.000 C 
ATOM     66  C   UNL     1     -70.980 -60.785 -34.784  0.00  0.00    +0.000 C 
ENDBRANCH  63  65
ENDBRANCH   4  63
TORSDOF 17
ENDMDL
MODEL 8
REMARK VINA RESULT:      -4.7     34.897     40.040
REMARK  Name = 
REMARK  23 active torsions:
REMARK  status: ('A' for Active; 'I' for Inactive)
REMARK    1  A    between atoms: O_2  and  C_17
REMARK    2  A    between atoms: O_2  and  C_36
REMARK    3  A    between atoms: O_3  and  C_20
REMARK    4  A    between atoms: O_3  and  C_37
REMARK    5  A    between atoms: O_4  and  C_21
REMARK    6  A    between atoms: O_5  and  C_22
REMARK    7  A    between atoms: O_6  and  C_30
REMARK    8  A    between atoms: O_6  and  C_39
REMARK    9  A    between atoms: O_8  and  C_31
REMARK   10  A    between atoms: O_8  and  C_40
REMARK   11  A    between atoms: O_13  and  C_42
REMARK   12  A    between atoms: N_15  and  C_46
REMARK   13  A    between atoms: C_18  and  C_29
REMARK   14  A    between atoms: C_24  and  C_33
REMARK   15  A    between atoms: C_24  and  C_34
REMARK   16  A    between atoms: C_32  and  C_35
REMARK   17  A    between atoms: C_36  and  C_38
REMARK   18  A    between atoms: C_37  and  C_41
REMARK   19  A    between atoms: C_39  and  C_43
REMARK   20  A    between atoms: C_40  and  C_42
REMARK   21  A    between atoms: C_42  and  C_46
REMARK   22  A    between atoms: C_46  and  C_50
REMARK   23  A    between atoms: C_53  and  C_56
REMARK                            x       y       z     vdW  Elec       q    Type
REMARK                         _______ _______ _______ _____ _____    ______ ____
ROOT
ATOM      1  O   UNL     1     -63.652 -62.721 -55.356  0.00  0.00    +0.000 OA
ATOM      2  O   UNL     1     -57.994 -59.426 -54.096  0.00  0.00    +0.000 OA
ATOM      3  C   UNL     1     -61.651 -60.108 -56.363  0.00  0.00    +0.000 C 
ATOM      4  C   UNL     1     -62.372 -61.477 -56.538  0.00  0.00    +0.000 C 
ATOM      5  C   UNL     1     -59.972 -60.466 -55.555  0.00  0.00    +0.000 C 
ATOM      6  C   UNL     1     -62.597 -61.784 -55.001  0.00  0.00    +0.000 C 
ATOM      7  C   UNL     1     -61.809 -59.038 -57.881  0.00  0.00    +0.000 C 
ATOM      8  C   UNL     1     -61.258 -57.365 -58.579  0.00  0.00    +0.000 C 
ATOM      9  C   UNL     1     -60.345 -61.146 -54.171  0.00  0.00    +0.000 C 
ATOM     10  C   UNL     1     -61.393 -62.298 -54.247  0.00  0.00    +0.000 C 
ATOM     11  C   UNL     1     -60.032 -56.251 -57.946  0.00  0.00    +0.000 C 
ATOM     12  C   UNL     1     -63.911 -61.833 -56.511  0.00  0.00    +0.000 C 
ATOM     13  C   UNL     1     -58.604 -59.233 -55.170  0.00  0.00    +0.000 C 
ATOM     14  C   UNL     1     -60.626 -57.679 -60.012  0.00  0.00    +0.000 C 
ATOM     15  C   UNL     1     -58.620 -56.982 -57.724  0.00  0.00    +0.000 C 
ATOM     16  C   UNL     1     -59.167 -61.607 -56.304  0.00  0.00    +0.000 C 
ATOM     17  C   UNL     1     -58.033 -57.706 -56.187  0.00  0.00    +0.000 C 
ATOM     18  C   UNL     1     -59.042 -57.843 -60.123  0.00  0.00    +0.000 C 
ATOM     19  C   UNL     1     -58.119 -57.482 -58.903  0.00  0.00    +0.000 C 
ATOM     20  C   UNL     1     -59.813 -55.127 -59.078  0.00  0.00    +0.000 C 
ATOM     21  C   UNL     1     -60.429 -55.238 -56.824  0.00  0.00    +0.000 C 
ATOM     22  C   UNL     1     -56.701 -57.981 -59.033  0.00  0.00    +0.000 C 
ENDROOT
BRANCH   9  23
ATOM     23  O   UNL     1     -60.881 -60.155 -53.295  0.00  0.00    +0.000 OA
ATOM     24  H   UNL     1     -61.667 -59.786 -53.744  0.00  0.00    +0.000 HD
ENDBRANCH   9  23
BRANCH   8  25
ATOM     25  O   UNL     1     -62.472 -56.627 -58.819  0.00  0.00    +0.000 OA
ATOM     26  H   UNL     1     -62.779 -56.814 -59.723  0.00  0.00    +0.000 HD
ENDBRANCH   8  25
BRANCH  18  27
ATOM     27  O   UNL     1     -58.757 -59.233 -60.459  0.00  0.00    +0.000 OA
BRANCH  27  29
ATOM     28  O   UNL     1     -59.660 -59.362 -62.530  0.00  0.00    +0.000 OA
ATOM     29  C   UNL     1     -58.708 -59.548 -61.779  0.00  0.00    +0.000 C 
BRANCH  29  30
ATOM     30  C   UNL     1     -57.441 -60.294 -62.206  0.00  0.00    +0.000 C 
BRANCH  30  31
ATOM     31  O   UNL     1     -56.434 -59.486 -62.828  0.00  0.00    +0.000 OA
ATOM     32  H   UNL     1     -55.598 -59.698 -62.373  0.00  0.00    +0.000 HD
ENDBRANCH  30  31
BRANCH  30  33
ATOM     33  C   UNL     1     -57.860 -61.459 -63.144  0.00  0.00    +0.000 C 
BRANCH  33  34
ATOM     34  C   UNL     1     -56.885 -62.623 -63.024  0.00  0.00    +0.000 A 
ATOM     35  C   UNL     1     -56.973 -63.694 -63.930  0.00  0.00    +0.000 A 
ATOM     36  C   UNL     1     -55.914 -62.679 -62.012  0.00  0.00    +0.000 A 
ATOM     37  C   UNL     1     -56.102 -64.780 -63.837  0.00  0.00    +0.000 A 
ATOM     38  C   UNL     1     -55.043 -63.765 -61.921  0.00  0.00    +0.000 A 
ATOM     39  C   UNL     1     -55.136 -64.814 -62.834  0.00  0.00    +0.000 A 
ENDBRANCH  33  34
BRANCH  33  41
ATOM     40  O   UNL     1     -59.072 -60.144 -66.288  0.00  0.00    +0.000 OA
ATOM     41  N   UNL     1     -57.952 -60.992 -64.534  0.00  0.00    +0.000 N 
ATOM     42  C   UNL     1     -59.045 -60.941 -65.355  0.00  0.00    +0.000 C 
ATOM     43  H   UNL     1     -57.192 -60.385 -64.828  0.00  0.00    +0.000 HD
BRANCH  42  44
ATOM     44  C   UNL     1     -60.217 -61.809 -65.099  0.00  0.00    +0.000 A 
ATOM     45  C   UNL     1     -60.222 -63.156 -65.472  0.00  0.00    +0.000 A 
ATOM     46  C   UNL     1     -61.363 -61.235 -64.535  0.00  0.00    +0.000 A 
ATOM     47  C   UNL     1     -61.349 -63.942 -65.224  0.00  0.00    +0.000 A 
ATOM     48  C   UNL     1     -62.488 -62.021 -64.291  0.00  0.00    +0.000 A 
ATOM     49  C   UNL     1     -62.476 -63.376 -64.627  0.00  0.00    +0.000 A 
ENDBRANCH  42  44
ENDBRANCH  33  41
ENDBRANCH  30  33
ENDBRANCH  29  30
ENDBRANCH  27  29
ENDBRANCH  18  27
BRANCH  17  50
ATOM     50  O   UNL     1     -57.759 -56.558 -55.355  0.00  0.00    +0.000 OA
BRANCH  50  52
ATOM     51  O   UNL     1     -56.465 -55.669 -53.760  0.00  0.00    +0.000 OA
ATOM     52  C   UNL     1     -56.551 -56.324 -54.795  0.00  0.00    +0.000 C 
ATOM     53  C   UNL     1     -55.334 -56.809 -55.523  0.00  0.00    +0.000 C 
ENDBRANCH  50  52
ENDBRANCH  17  50
BRANCH   7  54
ATOM     54  O   UNL     1     -60.644 -59.534 -58.239  0.00  0.00    +0.000 OA
BRANCH  54  56
ATOM     55  O   UNL     1     -62.389 -59.859 -59.181  0.00  0.00    +0.000 OA
ATOM     56  C   UNL     1     -61.246 -60.302 -59.208  0.00  0.00    +0.000 C 
BRANCH  56  57
ATOM     57  C   UNL     1     -60.438 -61.836 -60.020  0.00  0.00    +0.000 A 
ATOM     58  C   UNL     1     -59.229 -62.505 -59.544  0.00  0.00    +0.000 A 
ATOM     59  C   UNL     1     -60.950 -62.618 -61.099  0.00  0.00    +0.000 A 
ATOM     60  C   UNL     1     -58.660 -63.703 -60.042  0.00  0.00    +0.000 A 
ATOM     61  C   UNL     1     -60.392 -63.822 -61.615  0.00  0.00    +0.000 A 
ATOM     62  C   UNL     1     -59.248 -64.370 -61.085  0.00  0.00    +0.000 A 
ENDBRANCH  56  57
ENDBRANCH  54  56
ENDBRANCH   7  54
BRANCH   4  63
ATOM     63  O   UNL     1     -61.548 -62.447 -57.226  0.00  0.00    +0.000 OA
BRANCH  63  65
ATOM     64  O   UNL     1     -62.874 -63.751 -58.467  0.00  0.00    +0.000 OA
ATOM     65  C   UNL     1     -61.974 -63.664 -57.634  0.00  0.00    +0.000 C 
ATOM     66  C   UNL     1     -61.427 -64.892 -56.977  0.00  0.00    +0.000 C 
ENDBRANCH  63  65
ENDBRANCH   4  63
TORSDOF 17
ENDMDL
MODEL 9
REMARK VINA RESULT:      -4.6     31.153     36.109
REMARK  Name = 
REMARK  23 active torsions:
REMARK  status: ('A' for Active; 'I' for Inactive)
REMARK    1  A    between atoms: O_2  and  C_17
REMARK    2  A    between atoms: O_2  and  C_36
REMARK    3  A    between atoms: O_3  and  C_20
REMARK    4  A    between atoms: O_3  and  C_37
REMARK    5  A    between atoms: O_4  and  C_21
REMARK    6  A    between atoms: O_5  and  C_22
REMARK    7  A    between atoms: O_6  and  C_30
REMARK    8  A    between atoms: O_6  and  C_39
REMARK    9  A    between atoms: O_8  and  C_31
REMARK   10  A    between atoms: O_8  and  C_40
REMARK   11  A    between atoms: O_13  and  C_42
REMARK   12  A    between atoms: N_15  and  C_46
REMARK   13  A    between atoms: C_18  and  C_29
REMARK   14  A    between atoms: C_24  and  C_33
REMARK   15  A    between atoms: C_24  and  C_34
REMARK   16  A    between atoms: C_32  and  C_35
REMARK   17  A    between atoms: C_36  and  C_38
REMARK   18  A    between atoms: C_37  and  C_41
REMARK   19  A    between atoms: C_39  and  C_43
REMARK   20  A    between atoms: C_40  and  C_42
REMARK   21  A    between atoms: C_42  and  C_46
REMARK   22  A    between atoms: C_46  and  C_50
REMARK   23  A    between atoms: C_53  and  C_56
REMARK                            x       y       z     vdW  Elec       q    Type
REMARK                         _______ _______ _______ _____ _____    ______ ____
ROOT
ATOM      1  O   UNL     1     -67.951 -43.276 -49.673  0.00  0.00    +0.000 OA
ATOM      2  O   UNL     1     -70.921 -48.516 -52.534  0.00  0.00    +0.000 OA
ATOM      3  C   UNL     1     -67.407 -46.215 -51.379  0.00  0.00    +0.000 C 
ATOM      4  C   UNL     1     -67.353 -44.671 -51.182  0.00  0.00    +0.000 C 
ATOM      5  C   UNL     1     -69.084 -46.614 -52.171  0.00  0.00    +0.000 C 
ATOM      6  C   UNL     1     -68.480 -44.570 -50.075  0.00  0.00    +0.000 C 
ATOM      7  C   UNL     1     -65.807 -46.887 -52.061  0.00  0.00    +0.000 C 
ATOM      8  C   UNL     1     -65.006 -48.502 -52.643  0.00  0.00    +0.000 C 
ATOM      9  C   UNL     1     -70.145 -46.091 -51.115  0.00  0.00    +0.000 C 
ATOM     10  C   UNL     1     -69.905 -44.649 -50.574  0.00  0.00    +0.000 C 
ATOM     11  C   UNL     1     -65.777 -50.066 -52.963  0.00  0.00    +0.000 C 
ATOM     12  C   UNL     1     -66.630 -43.806 -50.076  0.00  0.00    +0.000 C 
ATOM     13  C   UNL     1     -69.708 -48.296 -52.738  0.00  0.00    +0.000 C 
ATOM     14  C   UNL     1     -64.406 -48.193 -54.090  0.00  0.00    +0.000 C 
ATOM     15  C   UNL     1     -66.999 -49.929 -53.996  0.00  0.00    +0.000 C 
ATOM     16  C   UNL     1     -69.384 -45.720 -53.445  0.00  0.00    +0.000 C 
ATOM     17  C   UNL     1     -68.732 -49.730 -53.565  0.00  0.00    +0.000 C 
ATOM     18  C   UNL     1     -65.275 -48.581 -55.371  0.00  0.00    +0.000 C 
ATOM     19  C   UNL     1     -66.579 -49.445 -55.214  0.00  0.00    +0.000 C 
ATOM     20  C   UNL     1     -64.659 -50.986 -53.669  0.00  0.00    +0.000 C 
ATOM     21  C   UNL     1     -66.031 -51.050 -51.775  0.00  0.00    +0.000 C 
ATOM     22  C   UNL     1     -67.459 -49.464 -56.439  0.00  0.00    +0.000 C 
ENDROOT
BRANCH   9  23
ATOM     23  O   UNL     1     -70.147 -46.963 -49.985  0.00  0.00    +0.000 OA
ATOM     24  H   UNL     1     -69.251 -47.355 -49.939  0.00  0.00    +0.000 HD
ENDBRANCH   9  23
BRANCH   8  25
ATOM     25  O   UNL     1     -63.881 -48.713 -51.768  0.00  0.00    +0.000 OA
ATOM     26  H   UNL     1     -63.331 -49.428 -52.133  0.00  0.00    +0.000 HD
ENDBRANCH   8  25
BRANCH  18  27
ATOM     27  O   UNL     1     -65.677 -47.345 -56.032  0.00  0.00    +0.000 OA
BRANCH  27  29
ATOM     28  O   UNL     1     -63.687 -46.590 -56.799  0.00  0.00    +0.000 OA
ATOM     29  C   UNL     1     -64.860 -46.879 -57.011  0.00  0.00    +0.000 C 
BRANCH  29  30
ATOM     30  C   UNL     1     -65.563 -46.594 -58.342  0.00  0.00    +0.000 C 
BRANCH  30  31
ATOM     31  O   UNL     1     -65.911 -47.751 -59.110  0.00  0.00    +0.000 OA
ATOM     32  H   UNL     1     -65.662 -47.550 -60.031  0.00  0.00    +0.000 HD
ENDBRANCH  30  31
BRANCH  30  33
ATOM     33  C   UNL     1     -64.658 -45.641 -59.171  0.00  0.00    +0.000 C 
BRANCH  33  34
ATOM     34  C   UNL     1     -65.493 -44.566 -59.852  0.00  0.00    +0.000 A 
ATOM     35  C   UNL     1     -64.923 -43.305 -60.104  0.00  0.00    +0.000 A 
ATOM     36  C   UNL     1     -66.833 -44.780 -60.212  0.00  0.00    +0.000 A 
ATOM     37  C   UNL     1     -65.668 -42.295 -60.714  0.00  0.00    +0.000 A 
ATOM     38  C   UNL     1     -67.575 -43.769 -60.824  0.00  0.00    +0.000 A 
ATOM     39  C   UNL     1     -66.992 -42.528 -61.077  0.00  0.00    +0.000 A 
ENDBRANCH  33  34
BRANCH  33  41
ATOM     40  O   UNL     1     -62.021 -47.467 -60.844  0.00  0.00    +0.000 OA
ATOM     41  N   UNL     1     -63.877 -46.403 -60.155  0.00  0.00    +0.000 N 
ATOM     42  C   UNL     1     -62.519 -46.486 -60.299  0.00  0.00    +0.000 C 
ATOM     43  H   UNL     1     -64.382 -47.164 -60.599  0.00  0.00    +0.000 HD
BRANCH  42  44
ATOM     44  C   UNL     1     -61.641 -45.422 -59.761  0.00  0.00    +0.000 A 
ATOM     45  C   UNL     1     -61.069 -45.524 -58.489  0.00  0.00    +0.000 A 
ATOM     46  C   UNL     1     -61.447 -44.265 -60.524  0.00  0.00    +0.000 A 
ATOM     47  C   UNL     1     -60.254 -44.497 -58.010  0.00  0.00    +0.000 A 
ATOM     48  C   UNL     1     -60.635 -43.240 -60.042  0.00  0.00    +0.000 A 
ATOM     49  C   UNL     1     -60.031 -43.361 -58.790  0.00  0.00    +0.000 A 
ENDBRANCH  42  44
ENDBRANCH  33  41
ENDBRANCH  30  33
ENDBRANCH  29  30
ENDBRANCH  27  29
ENDBRANCH  18  27
BRANCH  17  50
ATOM     50  O   UNL     1     -69.101 -51.024 -53.042  0.00  0.00    +0.000 OA
BRANCH  50  52
ATOM     51  O   UNL     1     -71.055 -51.796 -53.814  0.00  0.00    +0.000 OA
ATOM     52  C   UNL     1     -69.836 -51.920 -53.738  0.00  0.00    +0.000 C 
ATOM     53  C   UNL     1     -69.126 -53.101 -54.330  0.00  0.00    +0.000 C 
ENDBRANCH  50  52
ENDBRANCH  17  50
BRANCH   7  54
ATOM     54  O   UNL     1     -66.374 -46.779 -53.244  0.00  0.00    +0.000 OA
BRANCH  54  56
ATOM     55  O   UNL     1     -64.812 -45.698 -52.589  0.00  0.00    +0.000 OA
ATOM     56  C   UNL     1     -65.564 -45.713 -53.558  0.00  0.00    +0.000 C 
BRANCH  56  57
ATOM     57  C   UNL     1     -65.902 -44.493 -54.993  0.00  0.00    +0.000 A 
ATOM     58  C   UNL     1     -67.175 -44.346 -55.695  0.00  0.00    +0.000 A 
ATOM     59  C   UNL     1     -65.031 -43.476 -55.492  0.00  0.00    +0.000 A 
ATOM     60  C   UNL     1     -67.504 -43.384 -56.682  0.00  0.00    +0.000 A 
ATOM     61  C   UNL     1     -65.343 -42.503 -56.483  0.00  0.00    +0.000 A 
ATOM     62  C   UNL     1     -66.580 -42.453 -57.078  0.00  0.00    +0.000 A 
ENDBRANCH  56  57
ENDBRANCH  54  56
ENDBRANCH   7  54
BRANCH   4  63
ATOM     63  O   UNL     1     -67.648 -43.952 -52.403  0.00  0.00    +0.000 OA
BRANCH  63  65
ATOM     64  O   UNL     1     -68.771 -42.028 -52.597  0.00  0.00    +0.000 OA
ATOM     65  C   UNL     1     -67.688 -42.604 -52.508  0.00  0.00    +0.000 C 
ATOM     66  C   UNL     1     -66.409 -41.839 -52.634  0.00  0.00    +0.000 C 
ENDBRANCH  63  65
ENDBRANCH   4  63
TORSDOF 17
ENDMDL
