MODEL 1
REMARK VINA RESULT:      -6.6      0.000      0.000
REMARK  Name = 
REMARK  5 active torsions:
REMARK  status: ('A' for Active; 'I' for Inactive)
REMARK    1  A    between atoms: O_1  and  C_16
REMARK    2  A    between atoms: O_3  and  C_25
REMARK    3  A    between atoms: C_11  and  C_22
REMARK    4  A    between atoms: C_16  and  C_28
REMARK    5  A    between atoms: C_29  and  C_31
REMARK                            x       y       z     vdW  Elec       q    Type
REMARK                         _______ _______ _______ _____ _____    ______ ____
ROOT
ATOM      1  O   UNL     1     -75.871 -56.994 -26.571  0.00  0.00    +0.000 OA
ATOM      2  N   UNL     1     -69.205 -57.619 -33.303  0.00  0.00    +0.000 NA
ATOM      3  C   UNL     1     -71.374 -56.318 -30.399  0.00  0.00    +0.000 C 
ATOM      4  C   UNL     1     -72.841 -55.837 -30.243  0.00  0.00    +0.000 C 
ATOM      5  C   UNL     1     -72.132 -56.887 -28.199  0.00  0.00    +0.000 C 
ATOM      6  C   UNL     1     -73.386 -56.630 -29.044  0.00  0.00    +0.000 C 
ATOM      7  C   UNL     1     -71.045 -56.843 -31.810  0.00  0.00    +0.000 C 
ATOM      8  C   UNL     1     -71.142 -57.340 -29.267  0.00  0.00    +0.000 C 
ATOM      9  C   UNL     1     -72.416 -57.805 -26.980  0.00  0.00    +0.000 C 
ATOM     10  C   UNL     1     -71.478 -55.794 -32.858  0.00  0.00    +0.000 C 
ATOM     11  C   UNL     1     -73.677 -56.038 -31.503  0.00  0.00    +0.000 C 
ATOM     12  C   UNL     1     -73.490 -57.068 -26.124  0.00  0.00    +0.000 C 
ATOM     13  C   UNL     1     -72.995 -55.489 -32.754  0.00  0.00    +0.000 C 
ATOM     14  C   UNL     1     -71.028 -56.209 -34.289  0.00  0.00    +0.000 C 
ATOM     15  C   UNL     1     -74.486 -55.956 -28.237  0.00  0.00    +0.000 C 
ATOM     16  C   UNL     1     -69.551 -57.166 -31.945  0.00  0.00    +0.000 C 
ATOM     17  C   UNL     1     -69.492 -56.556 -34.307  0.00  0.00    +0.000 C 
ATOM     18  C   UNL     1     -71.137 -57.957 -26.118  0.00  0.00    +0.000 C 
ATOM     19  C   UNL     1     -74.732 -56.741 -26.957  0.00  0.00    +0.000 C 
ATOM     20  C   UNL     1     -72.895 -59.212 -27.416  0.00  0.00    +0.000 C 
ATOM     21  C   UNL     1     -73.802 -57.800 -24.819  0.00  0.00    +0.000 C 
ATOM     22  C   UNL     1     -71.397 -58.634 -24.770  0.00  0.00    +0.000 C 
ATOM     23  C   UNL     1     -72.532 -57.976 -23.985  0.00  0.00    +0.000 C 
ATOM     24  C   UNL     1     -69.038 -57.011 -35.717  0.00  0.00    +0.000 C 
ATOM     25  C   UNL     1     -67.781 -58.009 -33.316  0.00  0.00    +0.000 C 
ATOM     26  C   UNL     1     -71.365 -55.109 -35.306  0.00  0.00    +0.000 C 
ATOM     27  C   UNL     1     -67.322 -58.545 -34.676  0.00  0.00    +0.000 C 
ATOM     28  C   UNL     1     -67.592 -57.493 -35.750  0.00  0.00    +0.000 C 
ATOM     29  C   UNL     1     -67.976 -59.889 -35.009  0.00  0.00    +0.000 C 
ENDROOT
BRANCH  14  30
ATOM     30  O   UNL     1     -71.765 -57.384 -34.665  0.00  0.00    +0.000 OA
ATOM     31  H   UNL     1     -72.023 -57.235 -35.597  0.00  0.00    +0.000 HD
ENDBRANCH  14  30
BRANCH  23  32
ATOM     32  O   UNL     1     -72.812 -58.777 -22.842  0.00  0.00    +0.000 OA
ATOM     33  H   UNL     1     -73.156 -58.192 -22.146  0.00  0.00    +0.000 HD
ENDBRANCH  23  32
TORSDOF 2
ENDMDL
MODEL 2
REMARK VINA RESULT:      -6.3      2.493      8.694
REMARK  Name = 
REMARK  5 active torsions:
REMARK  status: ('A' for Active; 'I' for Inactive)
REMARK    1  A    between atoms: O_1  and  C_16
REMARK    2  A    between atoms: O_3  and  C_25
REMARK    3  A    between atoms: C_11  and  C_22
REMARK    4  A    between atoms: C_16  and  C_28
REMARK    5  A    between atoms: C_29  and  C_31
REMARK                            x       y       z     vdW  Elec       q    Type
REMARK                         _______ _______ _______ _____ _____    ______ ____
ROOT
ATOM      1  O   UNL     1     -67.616 -57.084 -36.735  0.00  0.00    +0.000 OA
ATOM      2  N   UNL     1     -71.902 -58.287 -28.348  0.00  0.00    +0.000 NA
ATOM      3  C   UNL     1     -71.273 -57.988 -32.135  0.00  0.00    +0.000 C 
ATOM      4  C   UNL     1     -70.901 -56.838 -33.108  0.00  0.00    +0.000 C 
ATOM      5  C   UNL     1     -69.941 -58.891 -33.911  0.00  0.00    +0.000 C 
ATOM      6  C   UNL     1     -69.705 -57.375 -33.911  0.00  0.00    +0.000 C 
ATOM      7  C   UNL     1     -71.303 -57.558 -30.656  0.00  0.00    +0.000 C 
ATOM      8  C   UNL     1     -70.291 -59.137 -32.447  0.00  0.00    +0.000 C 
ATOM      9  C   UNL     1     -68.768 -59.674 -34.559  0.00  0.00    +0.000 C 
ATOM     10  C   UNL     1     -72.187 -56.301 -30.509  0.00  0.00    +0.000 C 
ATOM     11  C   UNL     1     -70.582 -55.527 -32.395  0.00  0.00    +0.000 C 
ATOM     12  C   UNL     1     -68.659 -59.154 -36.025  0.00  0.00    +0.000 C 
ATOM     13  C   UNL     1     -71.655 -55.135 -31.381  0.00  0.00    +0.000 C 
ATOM     14  C   UNL     1     -72.374 -55.917 -29.012  0.00  0.00    +0.000 C 
ATOM     15  C   UNL     1     -69.541 -56.826 -35.320  0.00  0.00    +0.000 C 
ATOM     16  C   UNL     1     -71.815 -58.694 -29.761  0.00  0.00    +0.000 C 
ATOM     17  C   UNL     1     -72.863 -57.161 -28.179  0.00  0.00    +0.000 C 
ATOM     18  C   UNL     1     -69.101 -61.187 -34.611  0.00  0.00    +0.000 C 
ATOM     19  C   UNL     1     -68.485 -57.634 -36.061  0.00  0.00    +0.000 C 
ATOM     20  C   UNL     1     -67.443 -59.479 -33.781  0.00  0.00    +0.000 C 
ATOM     21  C   UNL     1     -67.609 -59.910 -36.838  0.00  0.00    +0.000 C 
ATOM     22  C   UNL     1     -68.113 -61.991 -35.460  0.00  0.00    +0.000 C 
ATOM     23  C   UNL     1     -67.923 -61.407 -36.860  0.00  0.00    +0.000 C 
ATOM     24  C   UNL     1     -73.014 -56.805 -26.678  0.00  0.00    +0.000 C 
ATOM     25  C   UNL     1     -72.297 -59.464 -27.548  0.00  0.00    +0.000 C 
ATOM     26  C   UNL     1     -73.344 -54.734 -28.870  0.00  0.00    +0.000 C 
ATOM     27  C   UNL     1     -72.373 -59.165 -26.047  0.00  0.00    +0.000 C 
ATOM     28  C   UNL     1     -73.347 -58.013 -25.810  0.00  0.00    +0.000 C 
ATOM     29  C   UNL     1     -70.991 -58.881 -25.452  0.00  0.00    +0.000 C 
ENDROOT
BRANCH  14  30
ATOM     30  O   UNL     1     -71.100 -55.495 -28.497  0.00  0.00    +0.000 OA
ATOM     31  H   UNL     1     -71.037 -55.904 -27.610  0.00  0.00    +0.000 HD
ENDBRANCH  14  30
BRANCH  23  32
ATOM     32  O   UNL     1     -66.866 -62.113 -37.501  0.00  0.00    +0.000 OA
ATOM     33  H   UNL     1     -66.749 -62.959 -37.036  0.00  0.00    +0.000 HD
ENDBRANCH  23  32
TORSDOF 2
ENDMDL
MODEL 3
REMARK VINA RESULT:      -6.3      6.779     11.610
REMARK  Name = 
REMARK  5 active torsions:
REMARK  status: ('A' for Active; 'I' for Inactive)
REMARK    1  A    between atoms: O_1  and  C_16
REMARK    2  A    between atoms: O_3  and  C_25
REMARK    3  A    between atoms: C_11  and  C_22
REMARK    4  A    between atoms: C_16  and  C_28
REMARK    5  A    between atoms: C_29  and  C_31
REMARK                            x       y       z     vdW  Elec       q    Type
REMARK                         _______ _______ _______ _____ _____    ______ ____
ROOT
ATOM      1  O   UNL     1     -76.132 -60.220 -25.481  0.00  0.00    +0.000 OA
ATOM      2  N   UNL     1     -73.520 -52.900 -20.026  0.00  0.00    +0.000 NA
ATOM      3  C   UNL     1     -74.210 -56.474 -21.284  0.00  0.00    +0.000 C 
ATOM      4  C   UNL     1     -75.478 -57.314 -21.591  0.00  0.00    +0.000 C 
ATOM      5  C   UNL     1     -73.712 -57.978 -23.081  0.00  0.00    +0.000 C 
ATOM      6  C   UNL     1     -75.240 -57.880 -23.001  0.00  0.00    +0.000 C 
ATOM      7  C   UNL     1     -74.517 -55.016 -20.889  0.00  0.00    +0.000 C 
ATOM      8  C   UNL     1     -73.296 -56.622 -22.519  0.00  0.00    +0.000 C 
ATOM      9  C   UNL     1     -73.218 -58.406 -24.489  0.00  0.00    +0.000 C 
ATOM     10  C   UNL     1     -75.567 -55.006 -19.756  0.00  0.00    +0.000 C 
ATOM     11  C   UNL     1     -76.770 -56.508 -21.497  0.00  0.00    +0.000 C 
ATOM     12  C   UNL     1     -73.855 -59.801 -24.765  0.00  0.00    +0.000 C 
ATOM     13  C   UNL     1     -76.874 -55.715 -20.196  0.00  0.00    +0.000 C 
ATOM     14  C   UNL     1     -75.797 -53.565 -19.216  0.00  0.00    +0.000 C 
ATOM     15  C   UNL     1     -75.912 -59.209 -23.312  0.00  0.00    +0.000 C 
ATOM     16  C   UNL     1     -73.241 -54.280 -20.459  0.00  0.00    +0.000 C 
ATOM     17  C   UNL     1     -74.426 -52.888 -18.843  0.00  0.00    +0.000 C 
ATOM     18  C   UNL     1     -71.677 -58.573 -24.486  0.00  0.00    +0.000 C 
ATOM     19  C   UNL     1     -75.378 -59.751 -24.631  0.00  0.00    +0.000 C 
ATOM     20  C   UNL     1     -73.607 -57.373 -25.576  0.00  0.00    +0.000 C 
ATOM     21  C   UNL     1     -73.376 -60.415 -26.081  0.00  0.00    +0.000 C 
ATOM     22  C   UNL     1     -71.142 -59.235 -25.759  0.00  0.00    +0.000 C 
ATOM     23  C   UNL     1     -71.852 -60.549 -26.087  0.00  0.00    +0.000 C 
ATOM     24  C   UNL     1     -74.636 -51.436 -18.342  0.00  0.00    +0.000 C 
ATOM     25  C   UNL     1     -72.235 -52.234 -19.735  0.00  0.00    +0.000 C 
ATOM     26  C   UNL     1     -76.759 -53.579 -18.018  0.00  0.00    +0.000 C 
ATOM     27  C   UNL     1     -72.404 -50.770 -19.318  0.00  0.00    +0.000 C 
ATOM     28  C   UNL     1     -73.326 -50.693 -18.103  0.00  0.00    +0.000 C 
ATOM     29  C   UNL     1     -72.904 -49.902 -20.476  0.00  0.00    +0.000 C 
ENDROOT
BRANCH  14  30
ATOM     30  O   UNL     1     -76.418 -52.793 -20.258  0.00  0.00    +0.000 OA
ATOM     31  H   UNL     1     -77.379 -52.858 -20.085  0.00  0.00    +0.000 HD
ENDBRANCH  14  30
BRANCH  23  32
ATOM     32  O   UNL     1     -71.411 -60.990 -27.367  0.00  0.00    +0.000 OA
ATOM     33  H   UNL     1     -71.206 -60.201 -27.899  0.00  0.00    +0.000 HD
ENDBRANCH  23  32
TORSDOF 2
ENDMDL
MODEL 4
REMARK VINA RESULT:      -6.3     41.638     46.963
REMARK  Name = 
REMARK  5 active torsions:
REMARK  status: ('A' for Active; 'I' for Inactive)
REMARK    1  A    between atoms: O_1  and  C_16
REMARK    2  A    between atoms: O_3  and  C_25
REMARK    3  A    between atoms: C_11  and  C_22
REMARK    4  A    between atoms: C_16  and  C_28
REMARK    5  A    between atoms: C_29  and  C_31
REMARK                            x       y       z     vdW  Elec       q    Type
REMARK                         _______ _______ _______ _____ _____    ______ ____
ROOT
ATOM      1  O   UNL     1     -68.992 -59.786 -72.166  0.00  0.00    +0.000 OA
ATOM      2  N   UNL     1     -64.291 -61.921 -80.134  0.00  0.00    +0.000 NA
ATOM      3  C   UNL     1     -65.502 -60.093 -76.969  0.00  0.00    +0.000 C 
ATOM      4  C   UNL     1     -66.811 -59.381 -76.534  0.00  0.00    +0.000 C 
ATOM      5  C   UNL     1     -65.776 -60.377 -74.606  0.00  0.00    +0.000 C 
ATOM      6  C   UNL     1     -67.151 -59.992 -75.165  0.00  0.00    +0.000 C 
ATOM      7  C   UNL     1     -65.597 -60.764 -78.353  0.00  0.00    +0.000 C 
ATOM      8  C   UNL     1     -65.142 -61.055 -75.817  0.00  0.00    +0.000 C 
ATOM      9  C   UNL     1     -65.877 -61.150 -73.263  0.00  0.00    +0.000 C 
ATOM     10  C   UNL     1     -66.125 -59.739 -79.380  0.00  0.00    +0.000 C 
ATOM     11  C   UNL     1     -67.945 -59.541 -77.541  0.00  0.00    +0.000 C 
ATOM     12  C   UNL     1     -66.605 -60.196 -72.269  0.00  0.00    +0.000 C 
ATOM     13  C   UNL     1     -67.517 -59.196 -78.966  0.00  0.00    +0.000 C 
ATOM     14  C   UNL     1     -66.093 -60.321 -80.823  0.00  0.00    +0.000 C 
ATOM     15  C   UNL     1     -67.924 -59.098 -74.205  0.00  0.00    +0.000 C 
ATOM     16  C   UNL     1     -64.236 -61.323 -78.790  0.00  0.00    +0.000 C 
ATOM     17  C   UNL     1     -64.668 -60.902 -81.154  0.00  0.00    +0.000 C 
ATOM     18  C   UNL     1     -64.460 -61.435 -72.704  0.00  0.00    +0.000 C 
ATOM     19  C   UNL     1     -67.956 -59.742 -72.826  0.00  0.00    +0.000 C 
ATOM     20  C   UNL     1     -66.631 -62.494 -73.425  0.00  0.00    +0.000 C 
ATOM     21  C   UNL     1     -66.688 -60.774 -70.856  0.00  0.00    +0.000 C 
ATOM     22  C   UNL     1     -64.476 -61.965 -71.268  0.00  0.00    +0.000 C 
ATOM     23  C   UNL     1     -65.289 -61.084 -70.320  0.00  0.00    +0.000 C 
ATOM     24  C   UNL     1     -64.631 -61.523 -82.574  0.00  0.00    +0.000 C 
ATOM     25  C   UNL     1     -62.978 -62.528 -80.430  0.00  0.00    +0.000 C 
ATOM     26  C   UNL     1     -66.515 -59.258 -81.849  0.00  0.00    +0.000 C 
ATOM     27  C   UNL     1     -62.936 -63.225 -81.793  0.00  0.00    +0.000 C 
ATOM     28  C   UNL     1     -63.314 -62.224 -82.883  0.00  0.00    +0.000 C 
ATOM     29  C   UNL     1     -63.824 -64.471 -81.823  0.00  0.00    +0.000 C 
ENDROOT
BRANCH  14  30
ATOM     30  O   UNL     1     -67.049 -61.392 -80.893  0.00  0.00    +0.000 OA
ATOM     31  H   UNL     1     -66.798 -62.004 -80.172  0.00  0.00    +0.000 HD
ENDBRANCH  14  30
BRANCH  23  32
ATOM     32  O   UNL     1     -65.389 -61.747 -69.065  0.00  0.00    +0.000 OA
ATOM     33  H   UNL     1     -64.510 -61.733 -68.650  0.00  0.00    +0.000 HD
ENDBRANCH  23  32
TORSDOF 2
ENDMDL
MODEL 5
REMARK VINA RESULT:      -6.2     23.288     28.859
REMARK  Name = 
REMARK  5 active torsions:
REMARK  status: ('A' for Active; 'I' for Inactive)
REMARK    1  A    between atoms: O_1  and  C_16
REMARK    2  A    between atoms: O_3  and  C_25
REMARK    3  A    between atoms: C_11  and  C_22
REMARK    4  A    between atoms: C_16  and  C_28
REMARK    5  A    between atoms: C_29  and  C_31
REMARK                            x       y       z     vdW  Elec       q    Type
REMARK                         _______ _______ _______ _____ _____    ______ ____
ROOT
ATOM      1  O   UNL     1     -66.712 -46.972 -59.946  0.00  0.00    +0.000 OA
ATOM      2  N   UNL     1     -64.079 -45.171 -51.003  0.00  0.00    +0.000 NA
ATOM      3  C   UNL     1     -64.780 -46.991 -54.324  0.00  0.00    +0.000 C 
ATOM      4  C   UNL     1     -66.052 -47.406 -55.111  0.00  0.00    +0.000 C 
ATOM      5  C   UNL     1     -64.286 -46.914 -56.667  0.00  0.00    +0.000 C 
ATOM      6  C   UNL     1     -65.814 -46.888 -56.539  0.00  0.00    +0.000 C 
ATOM      7  C   UNL     1     -65.083 -46.167 -53.057  0.00  0.00    +0.000 C 
ATOM      8  C   UNL     1     -63.866 -46.280 -55.344  0.00  0.00    +0.000 C 
ATOM      9  C   UNL     1     -63.792 -46.294 -58.002  0.00  0.00    +0.000 C 
ATOM     10  C   UNL     1     -66.134 -46.911 -52.205  0.00  0.00    +0.000 C 
ATOM     11  C   UNL     1     -67.340 -46.864 -54.501  0.00  0.00    +0.000 C 
ATOM     12  C   UNL     1     -64.434 -47.147 -59.138  0.00  0.00    +0.000 C 
ATOM     13  C   UNL     1     -67.443 -47.141 -53.003  0.00  0.00    +0.000 C 
ATOM     14  C   UNL     1     -66.360 -46.198 -50.840  0.00  0.00    +0.000 C 
ATOM     15  C   UNL     1     -66.491 -47.667 -57.657  0.00  0.00    +0.000 C 
ATOM     16  C   UNL     1     -63.805 -45.912 -52.247  0.00  0.00    +0.000 C 
ATOM     17  C   UNL     1     -64.986 -45.948 -50.113  0.00  0.00    +0.000 C 
ATOM     18  C   UNL     1     -62.252 -46.427 -58.114  0.00  0.00    +0.000 C 
ATOM     19  C   UNL     1     -65.957 -47.193 -59.002  0.00  0.00    +0.000 C 
ATOM     20  C   UNL     1     -64.175 -44.798 -58.121  0.00  0.00    +0.000 C 
ATOM     21  C   UNL     1     -63.955 -46.728 -60.528  0.00  0.00    +0.000 C 
ATOM     22  C   UNL     1     -61.717 -46.073 -59.504  0.00  0.00    +0.000 C 
ATOM     23  C   UNL     1     -62.432 -46.830 -60.624  0.00  0.00    +0.000 C 
ATOM     24  C   UNL     1     -65.191 -45.200 -48.770  0.00  0.00    +0.000 C 
ATOM     25  C   UNL     1     -62.791 -44.875 -50.344  0.00  0.00    +0.000 C 
ATOM     26  C   UNL     1     -67.323 -47.004 -49.956  0.00  0.00    +0.000 C 
ATOM     27  C   UNL     1     -62.954 -44.062 -49.056  0.00  0.00    +0.000 C 
ATOM     28  C   UNL     1     -63.878 -44.812 -48.099  0.00  0.00    +0.000 C 
ATOM     29  C   UNL     1     -63.450 -42.640 -49.339  0.00  0.00    +0.000 C 
ENDROOT
BRANCH  14  30
ATOM     30  O   UNL     1     -66.975 -44.925 -51.100  0.00  0.00    +0.000 OA
ATOM     31  H   UNL     1     -66.892 -44.426 -50.262  0.00  0.00    +0.000 HD
ENDBRANCH  14  30
BRANCH  23  32
ATOM     32  O   UNL     1     -61.991 -46.306 -61.872  0.00  0.00    +0.000 OA
ATOM     33  H   UNL     1     -61.533 -47.020 -62.349  0.00  0.00    +0.000 HD
ENDBRANCH  23  32
TORSDOF 2
ENDMDL
MODEL 6
REMARK VINA RESULT:      -6.2     10.232     14.152
REMARK  Name = 
REMARK  5 active torsions:
REMARK  status: ('A' for Active; 'I' for Inactive)
REMARK    1  A    between atoms: O_1  and  C_16
REMARK    2  A    between atoms: O_3  and  C_25
REMARK    3  A    between atoms: C_11  and  C_22
REMARK    4  A    between atoms: C_16  and  C_28
REMARK    5  A    between atoms: C_29  and  C_31
REMARK                            x       y       z     vdW  Elec       q    Type
REMARK                         _______ _______ _______ _____ _____    ______ ____
ROOT
ATOM      1  O   UNL     1     -67.865 -46.196 -38.600  0.00  0.00    +0.000 OA
ATOM      2  N   UNL     1     -66.143 -47.651 -29.377  0.00  0.00    +0.000 NA
ATOM      3  C   UNL     1     -66.880 -48.249 -33.109  0.00  0.00    +0.000 C 
ATOM      4  C   UNL     1     -68.088 -48.003 -34.052  0.00  0.00    +0.000 C 
ATOM      5  C   UNL     1     -66.048 -47.770 -35.304  0.00  0.00    +0.000 C 
ATOM      6  C   UNL     1     -67.495 -47.261 -35.261  0.00  0.00    +0.000 C 
ATOM      7  C   UNL     1     -67.094 -47.711 -31.681  0.00  0.00    +0.000 C 
ATOM      8  C   UNL     1     -65.651 -47.662 -33.835  0.00  0.00    +0.000 C 
ATOM      9  C   UNL     1     -65.197 -47.046 -36.381  0.00  0.00    +0.000 C 
ATOM     10  C   UNL     1     -68.437 -48.241 -31.133  0.00  0.00    +0.000 C 
ATOM     11  C   UNL     1     -69.219 -47.225 -33.388  0.00  0.00    +0.000 C 
ATOM     12  C   UNL     1     -65.898 -47.325 -37.745  0.00  0.00    +0.000 C 
ATOM     13  C   UNL     1     -69.621 -47.810 -32.037  0.00  0.00    +0.000 C 
ATOM     14  C   UNL     1     -68.628 -47.851 -29.638  0.00  0.00    +0.000 C 
ATOM     15  C   UNL     1     -68.209 -47.466 -36.589  0.00  0.00    +0.000 C 
ATOM     16  C   UNL     1     -65.933 -48.110 -30.761  0.00  0.00    +0.000 C 
ATOM     17  C   UNL     1     -67.366 -48.269 -28.793  0.00  0.00    +0.000 C 
ATOM     18  C   UNL     1     -63.775 -47.661 -36.438  0.00  0.00    +0.000 C 
ATOM     19  C   UNL     1     -67.363 -46.885 -37.714  0.00  0.00    +0.000 C 
ATOM     20  C   UNL     1     -65.076 -45.528 -36.098  0.00  0.00    +0.000 C 
ATOM     21  C   UNL     1     -65.115 -46.764 -38.932  0.00  0.00    +0.000 C 
ATOM     22  C   UNL     1     -62.960 -47.177 -37.641  0.00  0.00    +0.000 C 
ATOM     23  C   UNL     1     -63.701 -47.348 -38.967  0.00  0.00    +0.000 C 
ATOM     24  C   UNL     1     -67.524 -47.850 -27.309  0.00  0.00    +0.000 C 
ATOM     25  C   UNL     1     -64.938 -47.979 -28.589  0.00  0.00    +0.000 C 
ATOM     26  C   UNL     1     -69.912 -48.476 -29.072  0.00  0.00    +0.000 C 
ATOM     27  C   UNL     1     -65.028 -47.501 -27.136  0.00  0.00    +0.000 C 
ATOM     28  C   UNL     1     -66.268 -48.106 -26.482  0.00  0.00    +0.000 C 
ATOM     29  C   UNL     1     -65.011 -45.973 -27.036  0.00  0.00    +0.000 C 
ENDROOT
BRANCH  14  30
ATOM     30  O   UNL     1     -68.773 -46.423 -29.564  0.00  0.00    +0.000 OA
ATOM     31  H   UNL     1     -69.269 -46.261 -28.737  0.00  0.00    +0.000 HD
ENDBRANCH  14  30
BRANCH  23  32
ATOM     32  O   UNL     1     -62.942 -46.714 -39.991  0.00  0.00    +0.000 OA
ATOM     33  H   UNL     1     -62.676 -45.837 -39.664  0.00  0.00    +0.000 HD
ENDBRANCH  23  32
TORSDOF 2
ENDMDL
MODEL 7
REMARK VINA RESULT:      -6.1      3.469      8.120
REMARK  Name = 
REMARK  5 active torsions:
REMARK  status: ('A' for Active; 'I' for Inactive)
REMARK    1  A    between atoms: O_1  and  C_16
REMARK    2  A    between atoms: O_3  and  C_25
REMARK    3  A    between atoms: C_11  and  C_22
REMARK    4  A    between atoms: C_16  and  C_28
REMARK    5  A    between atoms: C_29  and  C_31
REMARK                            x       y       z     vdW  Elec       q    Type
REMARK                         _______ _______ _______ _____ _____    ______ ____
ROOT
ATOM      1  O   UNL     1     -71.054 -60.874 -33.571  0.00  0.00    +0.000 OA
ATOM      2  N   UNL     1     -71.807 -52.102 -30.017  0.00  0.00    +0.000 NA
ATOM      3  C   UNL     1     -70.781 -55.779 -30.520  0.00  0.00    +0.000 C 
ATOM      4  C   UNL     1     -71.497 -57.152 -30.416  0.00  0.00    +0.000 C 
ATOM      5  C   UNL     1     -69.805 -57.271 -32.121  0.00  0.00    +0.000 C 
ATOM      6  C   UNL     1     -71.166 -57.867 -31.737  0.00  0.00    +0.000 C 
ATOM      7  C   UNL     1     -71.721 -54.577 -30.305  0.00  0.00    +0.000 C 
ATOM      8  C   UNL     1     -70.053 -55.785 -31.881  0.00  0.00    +0.000 C 
ATOM      9  C   UNL     1     -69.321 -57.750 -33.516  0.00  0.00    +0.000 C 
ATOM     10  C   UNL     1     -72.510 -54.776 -28.992  0.00  0.00    +0.000 C 
ATOM     11  C   UNL     1     -72.999 -57.030 -30.180  0.00  0.00    +0.000 C 
ATOM     12  C   UNL     1     -69.215 -59.303 -33.427  0.00  0.00    +0.000 C 
ATOM     13  C   UNL     1     -73.338 -56.087 -29.028  0.00  0.00    +0.000 C 
ATOM     14  C   UNL     1     -73.359 -53.518 -28.651  0.00  0.00    +0.000 C 
ATOM     15  C   UNL     1     -71.126 -59.387 -31.685  0.00  0.00    +0.000 C 
ATOM     16  C   UNL     1     -70.934 -53.260 -30.275  0.00  0.00    +0.000 C 
ATOM     17  C   UNL     1     -72.467 -52.221 -28.687  0.00  0.00    +0.000 C 
ATOM     18  C   UNL     1     -67.908 -57.188 -33.811  0.00  0.00    +0.000 C 
ATOM     19  C   UNL     1     -70.541 -59.924 -32.984  0.00  0.00    +0.000 C 
ATOM     20  C   UNL     1     -70.284 -57.305 -34.646  0.00  0.00    +0.000 C 
ATOM     21  C   UNL     1     -68.642 -59.925 -34.700  0.00  0.00    +0.000 C 
ATOM     22  C   UNL     1     -67.257 -57.816 -35.048  0.00  0.00    +0.000 C 
ATOM     23  C   UNL     1     -67.260 -59.344 -35.007  0.00  0.00    +0.000 C 
ATOM     24  C   UNL     1     -73.308 -50.954 -28.389  0.00  0.00    +0.000 C 
ATOM     25  C   UNL     1     -70.993 -50.874 -30.113  0.00  0.00    +0.000 C 
ATOM     26  C   UNL     1     -74.053 -53.682 -27.290  0.00  0.00    +0.000 C 
ATOM     27  C   UNL     1     -71.814 -49.597 -29.907  0.00  0.00    +0.000 C 
ATOM     28  C   UNL     1     -72.516 -49.661 -28.552  0.00  0.00    +0.000 C 
ATOM     29  C   UNL     1     -72.799 -49.361 -31.055  0.00  0.00    +0.000 C 
ENDROOT
BRANCH  14  30
ATOM     30  O   UNL     1     -74.388 -53.391 -29.647  0.00  0.00    +0.000 OA
ATOM     31  H   UNL     1     -75.223 -53.594 -29.177  0.00  0.00    +0.000 HD
ENDBRANCH  14  30
BRANCH  23  32
ATOM     32  O   UNL     1     -66.801 -59.828 -36.264  0.00  0.00    +0.000 OA
ATOM     33  H   UNL     1     -67.581 -59.999 -36.820  0.00  0.00    +0.000 HD
ENDBRANCH  23  32
TORSDOF 2
ENDMDL
MODEL 8
REMARK VINA RESULT:      -6.1     12.909     14.472
REMARK  Name = 
REMARK  5 active torsions:
REMARK  status: ('A' for Active; 'I' for Inactive)
REMARK    1  A    between atoms: O_1  and  C_16
REMARK    2  A    between atoms: O_3  and  C_25
REMARK    3  A    between atoms: C_11  and  C_22
REMARK    4  A    between atoms: C_16  and  C_28
REMARK    5  A    between atoms: C_29  and  C_31
REMARK                            x       y       z     vdW  Elec       q    Type
REMARK                         _______ _______ _______ _____ _____    ______ ____
ROOT
ATOM      1  O   UNL     1     -61.099 -55.191 -16.446  0.00  0.00    +0.000 OA
ATOM      2  N   UNL     1     -60.938 -51.089 -25.008  0.00  0.00    +0.000 NA
ATOM      3  C   UNL     1     -61.366 -53.678 -22.189  0.00  0.00    +0.000 C 
ATOM      4  C   UNL     1     -60.410 -54.448 -21.240  0.00  0.00    +0.000 C 
ATOM      5  C   UNL     1     -62.490 -54.039 -20.104  0.00  0.00    +0.000 C 
ATOM      6  C   UNL     1     -60.992 -54.225 -19.834  0.00  0.00    +0.000 C 
ATOM      7  C   UNL     1     -60.646 -52.655 -23.089  0.00  0.00    +0.000 C 
ATOM      8  C   UNL     1     -62.462 -53.074 -21.285  0.00  0.00    +0.000 C 
ATOM      9  C   UNL     1     -63.281 -53.658 -18.824  0.00  0.00    +0.000 C 
ATOM     10  C   UNL     1     -59.469 -53.349 -23.809  0.00  0.00    +0.000 C 
ATOM     11  C   UNL     1     -58.959 -53.993 -21.349  0.00  0.00    +0.000 C 
ATOM     12  C   UNL     1     -63.064 -54.828 -17.818  0.00  0.00    +0.000 C 
ATOM     13  C   UNL     1     -58.464 -53.949 -22.793  0.00  0.00    +0.000 C 
ATOM     14  C   UNL     1     -58.806 -52.398 -24.847  0.00  0.00    +0.000 C 
ATOM     15  C   UNL     1     -60.730 -55.326 -18.817  0.00  0.00    +0.000 C 
ATOM     16  C   UNL     1     -61.616 -52.032 -24.101  0.00  0.00    +0.000 C 
ATOM     17  C   UNL     1     -59.891 -51.784 -25.809  0.00  0.00    +0.000 C 
ATOM     18  C   UNL     1     -64.796 -53.571 -19.140  0.00  0.00    +0.000 C 
ATOM     19  C   UNL     1     -61.575 -55.080 -17.574  0.00  0.00    +0.000 C 
ATOM     20  C   UNL     1     -62.812 -52.303 -18.238  0.00  0.00    +0.000 C 
ATOM     21  C   UNL     1     -63.874 -54.654 -16.533  0.00  0.00    +0.000 C 
ATOM     22  C   UNL     1     -65.665 -53.450 -17.885  0.00  0.00    +0.000 C 
ATOM     23  C   UNL     1     -65.366 -54.536 -16.851  0.00  0.00    +0.000 C 
ATOM     24  C   UNL     1     -59.250 -50.802 -26.822  0.00  0.00    +0.000 C 
ATOM     25  C   UNL     1     -61.955 -50.458 -25.872  0.00  0.00    +0.000 C 
ATOM     26  C   UNL     1     -57.710 -53.131 -25.636  0.00  0.00    +0.000 C 
ATOM     27  C   UNL     1     -61.363 -49.419 -26.828  0.00  0.00    +0.000 C 
ATOM     28  C   UNL     1     -60.280 -50.075 -27.681  0.00  0.00    +0.000 C 
ATOM     29  C   UNL     1     -60.840 -48.189 -26.081  0.00  0.00    +0.000 C 
ENDROOT
BRANCH  14  30
ATOM     30  O   UNL     1     -58.175 -51.324 -24.128  0.00  0.00    +0.000 OA
ATOM     31  H   UNL     1     -58.202 -50.559 -24.738  0.00  0.00    +0.000 HD
ENDBRANCH  14  30
BRANCH  23  32
ATOM     32  O   UNL     1     -66.090 -54.236 -15.663  0.00  0.00    +0.000 OA
ATOM     33  H   UNL     1     -67.029 -54.144 -15.902  0.00  0.00    +0.000 HD
ENDBRANCH  23  32
TORSDOF 2
ENDMDL
MODEL 9
REMARK VINA RESULT:      -6.1     52.747     57.505
REMARK  Name = 
REMARK  5 active torsions:
REMARK  status: ('A' for Active; 'I' for Inactive)
REMARK    1  A    between atoms: O_1  and  C_16
REMARK    2  A    between atoms: O_3  and  C_25
REMARK    3  A    between atoms: C_11  and  C_22
REMARK    4  A    between atoms: C_16  and  C_28
REMARK    5  A    between atoms: C_29  and  C_31
REMARK                            x       y       z     vdW  Elec       q    Type
REMARK                         _______ _______ _______ _____ _____    ______ ____
ROOT
ATOM      1  O   UNL     1     -43.794 -67.616 -83.109  0.00  0.00    +0.000 OA
ATOM      2  N   UNL     1     -49.372 -60.435 -80.373  0.00  0.00    +0.000 NA
ATOM      3  C   UNL     1     -47.751 -63.225 -82.476  0.00  0.00    +0.000 C 
ATOM      4  C   UNL     1     -46.367 -63.447 -83.142  0.00  0.00    +0.000 C 
ATOM      5  C   UNL     1     -47.263 -65.570 -82.457  0.00  0.00    +0.000 C 
ATOM      6  C   UNL     1     -45.929 -64.845 -82.677  0.00  0.00    +0.000 C 
ATOM      7  C   UNL     1     -47.833 -61.932 -81.641  0.00  0.00    +0.000 C 
ATOM      8  C   UNL     1     -48.051 -64.516 -81.686  0.00  0.00    +0.000 C 
ATOM      9  C   UNL     1     -47.076 -66.984 -81.844  0.00  0.00    +0.000 C 
ATOM     10  C   UNL     1     -47.349 -60.741 -82.497  0.00  0.00    +0.000 C 
ATOM     11  C   UNL     1     -45.349 -62.369 -82.785  0.00  0.00    +0.000 C 
ATOM     12  C   UNL     1     -46.199 -67.781 -82.857  0.00  0.00    +0.000 C 
ATOM     13  C   UNL     1     -45.894 -60.956 -82.987  0.00  0.00    +0.000 C 
ATOM     14  C   UNL     1     -47.557 -59.391 -81.751  0.00  0.00    +0.000 C 
ATOM     15  C   UNL     1     -45.016 -65.611 -83.622  0.00  0.00    +0.000 C 
ATOM     16  C   UNL     1     -49.259 -61.694 -81.130  0.00  0.00    +0.000 C 
ATOM     17  C   UNL     1     -49.039 -59.266 -81.235  0.00  0.00    +0.000 C 
ATOM     18  C   UNL     1     -48.445 -67.700 -81.727  0.00  0.00    +0.000 C 
ATOM     19  C   UNL     1     -44.886 -67.051 -83.146  0.00  0.00    +0.000 C 
ATOM     20  C   UNL     1     -46.420 -66.924 -80.442  0.00  0.00    +0.000 C 
ATOM     21  C   UNL     1     -46.011 -69.242 -82.447  0.00  0.00    +0.000 C 
ATOM     22  C   UNL     1     -48.319 -69.185 -81.372  0.00  0.00    +0.000 C 
ATOM     23  C   UNL     1     -47.366 -69.937 -82.301  0.00  0.00    +0.000 C 
ATOM     24  C   UNL     1     -49.251 -57.945 -80.454  0.00  0.00    +0.000 C 
ATOM     25  C   UNL     1     -50.741 -60.338 -79.829  0.00  0.00    +0.000 C 
ATOM     26  C   UNL     1     -47.176 -58.207 -82.652  0.00  0.00    +0.000 C 
ATOM     27  C   UNL     1     -50.957 -59.082 -78.979  0.00  0.00    +0.000 C 
ATOM     28  C   UNL     1     -50.631 -57.846 -79.814  0.00  0.00    +0.000 C 
ATOM     29  C   UNL     1     -50.150 -59.128 -77.679  0.00  0.00    +0.000 C 
ENDROOT
BRANCH  14  30
ATOM     30  O   UNL     1     -46.676 -59.370 -80.615  0.00  0.00    +0.000 OA
ATOM     31  H   UNL     1     -46.987 -58.621 -80.067  0.00  0.00    +0.000 HD
ENDBRANCH  14  30
BRANCH  23  32
ATOM     32  O   UNL     1     -47.182 -71.251 -81.786  0.00  0.00    +0.000 OA
ATOM     33  H   UNL     1     -47.531 -71.879 -82.442  0.00  0.00    +0.000 HD
ENDBRANCH  23  32
TORSDOF 2
ENDMDL
