MODEL 1
REMARK VINA RESULT:      -5.2      0.000      0.000
REMARK  Name = PhIP.pdbqt.pdb
REMARK  2 active torsions:
REMARK  status: ('A' for Active; 'I' for Inactive)
REMARK    1  A    between atoms: N_4  and  C_9
REMARK    2  A    between atoms: C_7  and  C_10
REMARK                            x       y       z     vdW  Elec       q    Type
REMARK                         _______ _______ _______ _____ _____    ______ ____
ROOT
ATOM      1  N   UNL     1     -68.711 -58.710 -35.838  0.00  0.00    +0.000 N 
ATOM      2  N   UNL     1     -66.986 -59.723 -34.545  0.00  0.00    +0.000 NA
ATOM      3  N   UNL     1     -67.556 -58.682 -32.429  0.00  0.00    +0.000 NA
ATOM      4  C   UNL     1     -68.879 -58.282 -34.556  0.00  0.00    +0.000 C 
ATOM      5  C   UNL     1     -67.737 -58.966 -33.788  0.00  0.00    +0.000 C 
ATOM      6  C   UNL     1     -69.315 -56.939 -32.572  0.00  0.00    +0.000 C 
ATOM      7  C   UNL     1     -69.505 -57.329 -33.935  0.00  0.00    +0.000 C 
ATOM      8  C   UNL     1     -67.578 -59.525 -35.782  0.00  0.00    +0.000 C 
ATOM      9  C   UNL     1     -69.015 -57.874 -36.986  0.00  0.00    +0.000 C 
ATOM     10  C   UNL     1     -68.276 -57.809 -32.096  0.00  0.00    +0.000 C 
ENDROOT
BRANCH   6  11
ATOM     11  C   UNL     1     -70.057 -55.947 -31.818  0.00  0.00    +0.000 A 
ATOM     12  C   UNL     1     -71.153 -55.294 -32.387  0.00  0.00    +0.000 A 
ATOM     13  C   UNL     1     -69.691 -55.628 -30.509  0.00  0.00    +0.000 A 
ATOM     14  C   UNL     1     -71.868 -54.340 -31.664  0.00  0.00    +0.000 A 
ATOM     15  C   UNL     1     -70.402 -54.675 -29.782  0.00  0.00    +0.000 A 
ATOM     16  C   UNL     1     -71.492 -54.031 -30.362  0.00  0.00    +0.000 A 
ENDBRANCH   6  11
BRANCH   8  17
ATOM     17  N   UNL     1     -66.929 -60.087 -36.894  0.00  0.00    +0.000 NA
ATOM     18  H   UNL     1     -66.204 -59.494 -37.282  0.00  0.00    +0.000 HD
ATOM     19  H   UNL     1     -66.641 -61.045 -36.738  0.00  0.00    +0.000 HD
ENDBRANCH   8  17
TORSDOF 2
ENDMDL
MODEL 2
REMARK VINA RESULT:      -5.2      3.240      5.331
REMARK  Name = PhIP.pdbqt.pdb
REMARK  2 active torsions:
REMARK  status: ('A' for Active; 'I' for Inactive)
REMARK    1  A    between atoms: N_4  and  C_9
REMARK    2  A    between atoms: C_7  and  C_10
REMARK                            x       y       z     vdW  Elec       q    Type
REMARK                         _______ _______ _______ _____ _____    ______ ____
ROOT
ATOM      1  N   UNL     1     -67.545 -55.499 -39.959  0.00  0.00    +0.000 N 
ATOM      2  N   UNL     1     -67.285 -57.716 -40.791  0.00  0.00    +0.000 NA
ATOM      3  N   UNL     1     -67.814 -58.869 -38.722  0.00  0.00    +0.000 NA
ATOM      4  C   UNL     1     -67.851 -56.342 -38.933  0.00  0.00    +0.000 C 
ATOM      5  C   UNL     1     -67.657 -57.741 -39.537  0.00  0.00    +0.000 C 
ATOM      6  C   UNL     1     -68.060 -57.391 -36.746  0.00  0.00    +0.000 C 
ATOM      7  C   UNL     1     -67.971 -56.280 -37.641  0.00  0.00    +0.000 C 
ATOM      8  C   UNL     1     -67.195 -56.351 -41.009  0.00  0.00    +0.000 C 
ATOM      9  C   UNL     1     -66.900 -54.214 -39.747  0.00  0.00    +0.000 C 
ATOM     10  C   UNL     1     -67.953 -58.543 -37.598  0.00  0.00    +0.000 C 
ENDROOT
BRANCH   6  11
ATOM     11  C   UNL     1     -68.288 -57.365 -35.314  0.00  0.00    +0.000 A 
ATOM     12  C   UNL     1     -67.352 -57.912 -34.434  0.00  0.00    +0.000 A 
ATOM     13  C   UNL     1     -69.447 -56.790 -34.788  0.00  0.00    +0.000 A 
ATOM     14  C   UNL     1     -67.569 -57.888 -33.057  0.00  0.00    +0.000 A 
ATOM     15  C   UNL     1     -69.669 -56.763 -33.413  0.00  0.00    +0.000 A 
ATOM     16  C   UNL     1     -68.728 -57.313 -32.547  0.00  0.00    +0.000 A 
ENDBRANCH   6  11
BRANCH   8  17
ATOM     17  N   UNL     1     -66.667 -55.938 -42.244  0.00  0.00    +0.000 NA
ATOM     18  H   UNL     1     -66.306 -56.702 -42.806  0.00  0.00    +0.000 HD
ATOM     19  H   UNL     1     -67.284 -55.312 -42.746  0.00  0.00    +0.000 HD
ENDBRANCH   8  17
TORSDOF 2
ENDMDL
MODEL 3
REMARK VINA RESULT:      -5.0     12.938     15.153
REMARK  Name = PhIP.pdbqt.pdb
REMARK  2 active torsions:
REMARK  status: ('A' for Active; 'I' for Inactive)
REMARK    1  A    between atoms: N_4  and  C_9
REMARK    2  A    between atoms: C_7  and  C_10
REMARK                            x       y       z     vdW  Elec       q    Type
REMARK                         _______ _______ _______ _____ _____    ______ ____
ROOT
ATOM      1  N   UNL     1     -61.450 -54.157 -22.833  0.00  0.00    +0.000 N 
ATOM      2  N   UNL     1     -61.983 -51.860 -23.169  0.00  0.00    +0.000 NA
ATOM      3  N   UNL     1     -62.986 -51.471 -20.993  0.00  0.00    +0.000 NA
ATOM      4  C   UNL     1     -62.003 -53.708 -21.672  0.00  0.00    +0.000 C 
ATOM      5  C   UNL     1     -62.324 -52.235 -21.963  0.00  0.00    +0.000 C 
ATOM      6  C   UNL     1     -63.285 -53.509 -19.611  0.00  0.00    +0.000 C 
ATOM      7  C   UNL     1     -62.534 -54.217 -20.601  0.00  0.00    +0.000 C 
ATOM      8  C   UNL     1     -61.487 -53.048 -23.681  0.00  0.00    +0.000 C 
ATOM      9  C   UNL     1     -61.638 -55.514 -23.314  0.00  0.00    +0.000 C 
ATOM     10  C   UNL     1     -63.330 -52.159 -20.099  0.00  0.00    +0.000 C 
ENDROOT
BRANCH   6  11
ATOM     11  C   UNL     1     -63.813 -54.019 -18.360  0.00  0.00    +0.000 A 
ATOM     12  C   UNL     1     -63.021 -54.807 -17.523  0.00  0.00    +0.000 A 
ATOM     13  C   UNL     1     -65.122 -53.730 -17.970  0.00  0.00    +0.000 A 
ATOM     14  C   UNL     1     -63.525 -55.298 -16.320  0.00  0.00    +0.000 A 
ATOM     15  C   UNL     1     -65.632 -54.220 -16.768  0.00  0.00    +0.000 A 
ATOM     16  C   UNL     1     -64.832 -55.004 -15.943  0.00  0.00    +0.000 A 
ENDBRANCH   6  11
BRANCH   8  17
ATOM     17  N   UNL     1     -61.150 -53.060 -25.045  0.00  0.00    +0.000 NA
ATOM     18  H   UNL     1     -61.395 -53.925 -25.515  0.00  0.00    +0.000 HD
ATOM     19  H   UNL     1     -61.452 -52.225 -25.532  0.00  0.00    +0.000 HD
ENDBRANCH   8  17
TORSDOF 2
ENDMDL
MODEL 4
REMARK VINA RESULT:      -5.0      8.320     10.550
REMARK  Name = PhIP.pdbqt.pdb
REMARK  2 active torsions:
REMARK  status: ('A' for Active; 'I' for Inactive)
REMARK    1  A    between atoms: N_4  and  C_9
REMARK    2  A    between atoms: C_7  and  C_10
REMARK                            x       y       z     vdW  Elec       q    Type
REMARK                         _______ _______ _______ _____ _____    ______ ____
ROOT
ATOM      1  N   UNL     1     -73.316 -57.531 -26.603  0.00  0.00    +0.000 N 
ATOM      2  N   UNL     1     -71.770 -59.264 -26.073  0.00  0.00    +0.000 NA
ATOM      3  N   UNL     1     -71.956 -59.094 -23.659  0.00  0.00    +0.000 NA
ATOM      4  C   UNL     1     -73.299 -57.641 -25.245  0.00  0.00    +0.000 C 
ATOM      5  C   UNL     1     -72.285 -58.763 -24.980  0.00  0.00    +0.000 C 
ATOM      6  C   UNL     1     -73.298 -57.168 -22.857  0.00  0.00    +0.000 C 
ATOM      7  C   UNL     1     -73.660 -56.930 -24.220  0.00  0.00    +0.000 C 
ATOM      8  C   UNL     1     -72.387 -58.480 -27.035  0.00  0.00    +0.000 C 
ATOM      9  C   UNL     1     -73.507 -56.261 -27.281  0.00  0.00    +0.000 C 
ATOM     10  C   UNL     1     -72.443 -58.322 -22.913  0.00  0.00    +0.000 C 
ENDROOT
BRANCH   6  11
ATOM     11  C   UNL     1     -73.753 -56.458 -21.677  0.00  0.00    +0.000 A 
ATOM     12  C   UNL     1     -75.116 -56.357 -21.389  0.00  0.00    +0.000 A 
ATOM     13  C   UNL     1     -72.837 -55.862 -20.807  0.00  0.00    +0.000 A 
ATOM     14  C   UNL     1     -75.556 -55.675 -20.256  0.00  0.00    +0.000 A 
ATOM     15  C   UNL     1     -73.272 -55.178 -19.673  0.00  0.00    +0.000 A 
ATOM     16  C   UNL     1     -74.633 -55.085 -19.398  0.00  0.00    +0.000 A 
ENDBRANCH   6  11
BRANCH   8  17
ATOM     17  N   UNL     1     -71.953 -58.644 -28.361  0.00  0.00    +0.000 NA
ATOM     18  H   UNL     1     -71.426 -57.852 -28.715  0.00  0.00    +0.000 HD
ATOM     19  H   UNL     1     -71.510 -59.539 -28.523  0.00  0.00    +0.000 HD
ENDBRANCH   8  17
TORSDOF 2
ENDMDL
MODEL 5
REMARK VINA RESULT:      -5.0      1.660      2.169
REMARK  Name = PhIP.pdbqt.pdb
REMARK  2 active torsions:
REMARK  status: ('A' for Active; 'I' for Inactive)
REMARK    1  A    between atoms: N_4  and  C_9
REMARK    2  A    between atoms: C_7  and  C_10
REMARK                            x       y       z     vdW  Elec       q    Type
REMARK                         _______ _______ _______ _____ _____    ______ ____
ROOT
ATOM      1  N   UNL     1     -69.831 -56.939 -36.157  0.00  0.00    +0.000 N 
ATOM      2  N   UNL     1     -67.576 -57.689 -35.984  0.00  0.00    +0.000 NA
ATOM      3  N   UNL     1     -67.507 -57.852 -33.564  0.00  0.00    +0.000 NA
ATOM      4  C   UNL     1     -69.586 -57.146 -34.833  0.00  0.00    +0.000 C 
ATOM      5  C   UNL     1     -68.125 -57.618 -34.799  0.00  0.00    +0.000 C 
ATOM      6  C   UNL     1     -69.508 -56.953 -32.407  0.00  0.00    +0.000 C 
ATOM      7  C   UNL     1     -70.113 -56.811 -33.694  0.00  0.00    +0.000 C 
ATOM      8  C   UNL     1     -68.619 -57.244 -36.781  0.00  0.00    +0.000 C 
ATOM      9  C   UNL     1     -70.710 -55.886 -36.633  0.00  0.00    +0.000 C 
ATOM     10  C   UNL     1     -68.210 -57.504 -32.684  0.00  0.00    +0.000 C 
ENDROOT
BRANCH   6  11
ATOM     11  C   UNL     1     -70.097 -56.679 -31.110  0.00  0.00    +0.000 A 
ATOM     12  C   UNL     1     -70.892 -57.635 -30.474  0.00  0.00    +0.000 A 
ATOM     13  C   UNL     1     -69.880 -55.456 -30.473  0.00  0.00    +0.000 A 
ATOM     14  C   UNL     1     -71.460 -57.375 -29.228  0.00  0.00    +0.000 A 
ATOM     15  C   UNL     1     -70.445 -55.190 -29.227  0.00  0.00    +0.000 A 
ATOM     16  C   UNL     1     -71.236 -56.152 -28.605  0.00  0.00    +0.000 A 
ENDBRANCH   6  11
BRANCH   8  17
ATOM     17  N   UNL     1     -68.337 -57.045 -38.143  0.00  0.00    +0.000 NA
ATOM     18  H   UNL     1     -68.205 -57.909 -38.659  0.00  0.00    +0.000 HD
ATOM     19  H   UNL     1     -68.973 -56.393 -38.585  0.00  0.00    +0.000 HD
ENDBRANCH   8  17
TORSDOF 2
ENDMDL
MODEL 6
REMARK VINA RESULT:      -4.9     23.687     26.847
REMARK  Name = PhIP.pdbqt.pdb
REMARK  2 active torsions:
REMARK  status: ('A' for Active; 'I' for Inactive)
REMARK    1  A    between atoms: N_4  and  C_9
REMARK    2  A    between atoms: C_7  and  C_10
REMARK                            x       y       z     vdW  Elec       q    Type
REMARK                         _______ _______ _______ _____ _____    ______ ____
ROOT
ATOM      1  N   UNL     1     -64.909 -47.408 -54.028  0.00  0.00    +0.000 N 
ATOM      2  N   UNL     1     -64.225 -45.251 -53.283  0.00  0.00    +0.000 NA
ATOM      3  N   UNL     1     -63.359 -44.468 -55.410  0.00  0.00    +0.000 NA
ATOM      4  C   UNL     1     -64.415 -46.754 -55.117  0.00  0.00    +0.000 C 
ATOM      5  C   UNL     1     -63.992 -45.386 -54.563  0.00  0.00    +0.000 C 
ATOM      6  C   UNL     1     -63.273 -46.191 -57.192  0.00  0.00    +0.000 C 
ATOM      7  C   UNL     1     -63.991 -47.055 -56.307  0.00  0.00    +0.000 C 
ATOM      8  C   UNL     1     -64.749 -46.497 -52.981  0.00  0.00    +0.000 C 
ATOM      9  C   UNL     1     -64.763 -48.841 -53.845  0.00  0.00    +0.000 C 
ATOM     10  C   UNL     1     -63.118 -44.971 -56.449  0.00  0.00    +0.000 C 
ENDROOT
BRANCH   6  11
ATOM     11  C   UNL     1     -62.865 -46.456 -58.559  0.00  0.00    +0.000 A 
ATOM     12  C   UNL     1     -63.807 -46.817 -59.525  0.00  0.00    +0.000 A 
ATOM     13  C   UNL     1     -61.524 -46.353 -58.933  0.00  0.00    +0.000 A 
ATOM     14  C   UNL     1     -63.417 -47.072 -60.839  0.00  0.00    +0.000 A 
ATOM     15  C   UNL     1     -61.129 -46.607 -60.246  0.00  0.00    +0.000 A 
ATOM     16  C   UNL     1     -62.078 -46.967 -61.199  0.00  0.00    +0.000 A 
ENDBRANCH   6  11
BRANCH   8  17
ATOM     17  N   UNL     1     -64.988 -46.774 -51.624  0.00  0.00    +0.000 NA
ATOM     18  H   UNL     1     -64.670 -47.693 -51.336  0.00  0.00    +0.000 HD
ATOM     19  H   UNL     1     -64.693 -46.024 -51.012  0.00  0.00    +0.000 HD
ENDBRANCH   8  17
TORSDOF 2
ENDMDL
MODEL 7
REMARK VINA RESULT:      -4.9     27.130     29.770
REMARK  Name = PhIP.pdbqt.pdb
REMARK  2 active torsions:
REMARK  status: ('A' for Active; 'I' for Inactive)
REMARK    1  A    between atoms: N_4  and  C_9
REMARK    2  A    between atoms: C_7  and  C_10
REMARK                            x       y       z     vdW  Elec       q    Type
REMARK                         _______ _______ _______ _____ _____    ______ ____
ROOT
ATOM      1  N   UNL     1     -61.326 -43.291 -60.283  0.00  0.00    +0.000 N 
ATOM      2  N   UNL     1     -60.169 -44.909 -61.594  0.00  0.00    +0.000 NA
ATOM      3  N   UNL     1     -61.734 -46.733 -61.254  0.00  0.00    +0.000 NA
ATOM      4  C   UNL     1     -62.082 -44.423 -60.266  0.00  0.00    +0.000 C 
ATOM      5  C   UNL     1     -61.278 -45.415 -61.119  0.00  0.00    +0.000 C 
ATOM      6  C   UNL     1     -63.519 -46.272 -59.594  0.00  0.00    +0.000 C 
ATOM      7  C   UNL     1     -63.054 -44.920 -59.561  0.00  0.00    +0.000 C 
ATOM      8  C   UNL     1     -60.209 -43.637 -61.047  0.00  0.00    +0.000 C 
ATOM      9  C   UNL     1     -61.246 -42.388 -59.148  0.00  0.00    +0.000 C 
ATOM     10  C   UNL     1     -62.654 -46.921 -60.540  0.00  0.00    +0.000 C 
ENDROOT
BRANCH   6  11
ATOM     11  C   UNL     1     -64.655 -46.840 -58.895  0.00  0.00    +0.000 A 
ATOM     12  C   UNL     1     -65.669 -47.495 -59.599  0.00  0.00    +0.000 A 
ATOM     13  C   UNL     1     -64.756 -46.745 -57.506  0.00  0.00    +0.000 A 
ATOM     14  C   UNL     1     -66.762 -48.042 -58.929  0.00  0.00    +0.000 A 
ATOM     15  C   UNL     1     -65.847 -47.290 -56.831  0.00  0.00    +0.000 A 
ATOM     16  C   UNL     1     -66.850 -47.939 -57.545  0.00  0.00    +0.000 A 
ENDBRANCH   6  11
BRANCH   8  17
ATOM     17  N   UNL     1     -59.073 -42.831 -61.231  0.00  0.00    +0.000 NA
ATOM     18  H   UNL     1     -59.236 -42.033 -61.836  0.00  0.00    +0.000 HD
ATOM     19  H   UNL     1     -58.609 -42.601 -60.362  0.00  0.00    +0.000 HD
ENDBRANCH   8  17
TORSDOF 2
ENDMDL
MODEL 8
REMARK VINA RESULT:      -4.9      3.799      6.417
REMARK  Name = PhIP.pdbqt.pdb
REMARK  2 active torsions:
REMARK  status: ('A' for Active; 'I' for Inactive)
REMARK    1  A    between atoms: N_4  and  C_9
REMARK    2  A    between atoms: C_7  and  C_10
REMARK                            x       y       z     vdW  Elec       q    Type
REMARK                         _______ _______ _______ _____ _____    ______ ____
ROOT
ATOM      1  N   UNL     1     -72.165 -58.613 -29.144  0.00  0.00    +0.000 N 
ATOM      2  N   UNL     1     -71.548 -56.647 -27.948  0.00  0.00    +0.000 NA
ATOM      3  N   UNL     1     -70.247 -55.622 -29.721  0.00  0.00    +0.000 NA
ATOM      4  C   UNL     1     -71.439 -57.842 -30.002  0.00  0.00    +0.000 C 
ATOM      5  C   UNL     1     -71.074 -56.606 -29.167  0.00  0.00    +0.000 C 
ATOM      6  C   UNL     1     -69.888 -57.061 -31.709  0.00  0.00    +0.000 C 
ATOM      7  C   UNL     1     -70.802 -57.993 -31.124  0.00  0.00    +0.000 C 
ATOM      8  C   UNL     1     -72.175 -57.882 -27.954  0.00  0.00    +0.000 C 
ATOM      9  C   UNL     1     -72.120 -60.064 -29.170  0.00  0.00    +0.000 C 
ATOM     10  C   UNL     1     -69.829 -55.981 -30.764  0.00  0.00    +0.000 C 
ENDROOT
BRANCH   6  11
ATOM     11  C   UNL     1     -69.231 -57.149 -32.999  0.00  0.00    +0.000 A 
ATOM     12  C   UNL     1     -67.937 -57.664 -33.105  0.00  0.00    +0.000 A 
ATOM     13  C   UNL     1     -69.881 -56.722 -34.159  0.00  0.00    +0.000 A 
ATOM     14  C   UNL     1     -67.304 -57.750 -34.344  0.00  0.00    +0.000 A 
ATOM     15  C   UNL     1     -69.252 -56.805 -35.400  0.00  0.00    +0.000 A 
ATOM     16  C   UNL     1     -67.962 -57.319 -35.491  0.00  0.00    +0.000 A 
ENDBRANCH   6  11
BRANCH   8  17
ATOM     17  N   UNL     1     -72.688 -58.340 -26.728  0.00  0.00    +0.000 NA
ATOM     18  H   UNL     1     -72.028 -58.896 -26.195  0.00  0.00    +0.000 HD
ATOM     19  H   UNL     1     -73.138 -57.608 -26.193  0.00  0.00    +0.000 HD
ENDBRANCH   8  17
TORSDOF 2
ENDMDL
MODEL 9
REMARK VINA RESULT:      -4.8     25.416     28.231
REMARK  Name = PhIP.pdbqt.pdb
REMARK  2 active torsions:
REMARK  status: ('A' for Active; 'I' for Inactive)
REMARK    1  A    between atoms: N_4  and  C_9
REMARK    2  A    between atoms: C_7  and  C_10
REMARK                            x       y       z     vdW  Elec       q    Type
REMARK                         _______ _______ _______ _____ _____    ______ ____
ROOT
ATOM      1  N   UNL     1     -67.773 -46.649 -56.504  0.00  0.00    +0.000 N 
ATOM      2  N   UNL     1     -69.137 -47.225 -58.371  0.00  0.00    +0.000 NA
ATOM      3  N   UNL     1     -67.333 -47.552 -59.961  0.00  0.00    +0.000 NA
ATOM      4  C   UNL     1     -66.929 -46.928 -57.536  0.00  0.00    +0.000 C 
ATOM      5  C   UNL     1     -67.871 -47.282 -58.696  0.00  0.00    +0.000 C 
ATOM      6  C   UNL     1     -65.088 -46.901 -59.131  0.00  0.00    +0.000 C 
ATOM      7  C   UNL     1     -65.684 -46.718 -57.844  0.00  0.00    +0.000 C 
ATOM      8  C   UNL     1     -69.048 -46.810 -57.052  0.00  0.00    +0.000 C 
ATOM      9  C   UNL     1     -67.475 -45.639 -55.503  0.00  0.00    +0.000 C 
ATOM     10  C   UNL     1     -66.176 -47.325 -59.968  0.00  0.00    +0.000 C 
ENDROOT
BRANCH   6  11
ATOM     11  C   UNL     1     -63.690 -46.768 -59.491  0.00  0.00    +0.000 A 
ATOM     12  C   UNL     1     -62.753 -46.320 -58.557  0.00  0.00    +0.000 A 
ATOM     13  C   UNL     1     -63.254 -47.087 -60.779  0.00  0.00    +0.000 A 
ATOM     14  C   UNL     1     -61.409 -46.192 -58.901  0.00  0.00    +0.000 A 
ATOM     15  C   UNL     1     -61.910 -46.959 -61.129  0.00  0.00    +0.000 A 
ATOM     16  C   UNL     1     -60.988 -46.511 -60.188  0.00  0.00    +0.000 A 
ENDBRANCH   6  11
BRANCH   8  17
ATOM     17  N   UNL     1     -70.253 -46.494 -56.403  0.00  0.00    +0.000 NA
ATOM     18  H   UNL     1     -70.558 -47.205 -55.746  0.00  0.00    +0.000 HD
ATOM     19  H   UNL     1     -70.263 -45.554 -56.027  0.00  0.00    +0.000 HD
ENDBRANCH   8  17
TORSDOF 2
ENDMDL
