MODEL 1
REMARK VINA RESULT:      -5.7      0.000      0.000
REMARK  Name = Piroxicam.pdbqt.pdb
REMARK  3 active torsions:
REMARK  status: ('A' for Active; 'I' for Inactive)
REMARK    1  A    between atoms: C_7  and  C_14
REMARK    2  A    between atoms: C_8  and  O_24
REMARK    3  A    between atoms: N_16  and  C_18
REMARK                            x       y       z     vdW  Elec       q    Type
REMARK                         _______ _______ _______ _____ _____    ______ ____
ROOT
ATOM      1  S   UNL     1     -63.365 -44.711 -57.871  0.00  0.00    +0.000 S 
ATOM      2  O   UNL     1     -62.348 -45.306 -57.024  0.00  0.00    +0.000 OA
ATOM      3  O   UNL     1     -64.481 -43.988 -57.292  0.00  0.00    +0.000 OA
ATOM      4  N   UNL     1     -62.587 -43.753 -59.072  0.00  0.00    +0.000 N 
ATOM      5  C   UNL     1     -64.013 -46.010 -58.850  0.00  0.00    +0.000 A 
ATOM      6  C   UNL     1     -63.283 -46.395 -59.973  0.00  0.00    +0.000 A 
ATOM      7  C   UNL     1     -61.677 -44.497 -59.896  0.00  0.00    +0.000 C 
ATOM      8  C   UNL     1     -62.004 -45.741 -60.315  0.00  0.00    +0.000 C 
ATOM      9  C   UNL     1     -65.228 -46.592 -58.508  0.00  0.00    +0.000 A 
ATOM     10  C   UNL     1     -63.400 -42.807 -59.855  0.00  0.00    +0.000 C 
ATOM     11  C   UNL     1     -63.794 -47.437 -60.749  0.00  0.00    +0.000 A 
ATOM     12  C   UNL     1     -65.723 -47.619 -59.303  0.00  0.00    +0.000 A 
ATOM     13  C   UNL     1     -65.005 -48.046 -60.419  0.00  0.00    +0.000 A 
ENDROOT
BRANCH   7  14
ATOM     14  C   UNL     1     -60.364 -43.871 -60.261  0.00  0.00    +0.000 C 
ATOM     15  O   UNL     1     -59.671 -43.367 -59.379  0.00  0.00    +0.000 OA
ATOM     16  N   UNL     1     -60.050 -43.916 -61.595  0.00  0.00    +0.000 N 
ATOM     17  H   UNL     1     -60.647 -44.411 -62.248  0.00  0.00    +0.000 HD
BRANCH  16  18
ATOM     18  C   UNL     1     -58.909 -43.386 -62.198  0.00  0.00    +0.000 A 
ATOM     19  N   UNL     1     -58.892 -42.039 -62.265  0.00  0.00    +0.000 NA
ATOM     20  C   UNL     1     -57.805 -41.471 -62.837  0.00  0.00    +0.000 A 
ATOM     21  C   UNL     1     -56.730 -42.179 -63.344  0.00  0.00    +0.000 A 
ATOM     22  C   UNL     1     -56.778 -43.562 -63.257  0.00  0.00    +0.000 A 
ATOM     23  C   UNL     1     -57.878 -44.182 -62.677  0.00  0.00    +0.000 A 
ENDBRANCH  16  18
ENDBRANCH   7  14
BRANCH   8  24
ATOM     24  O   UNL     1     -61.187 -46.523 -61.114  0.00  0.00    +0.000 OA
ATOM     25  H   UNL     1     -60.783 -47.240 -60.573  0.00  0.00    +0.000 HD
ENDBRANCH   8  24
TORSDOF 3
ENDMDL
MODEL 2
REMARK VINA RESULT:      -5.6      1.894      2.461
REMARK  Name = Piroxicam.pdbqt.pdb
REMARK  3 active torsions:
REMARK  status: ('A' for Active; 'I' for Inactive)
REMARK    1  A    between atoms: C_7  and  C_14
REMARK    2  A    between atoms: C_8  and  O_24
REMARK    3  A    between atoms: N_16  and  C_18
REMARK                            x       y       z     vdW  Elec       q    Type
REMARK                         _______ _______ _______ _____ _____    ______ ____
ROOT
ATOM      1  S   UNL     1     -61.569 -46.226 -58.998  0.00  0.00    +0.000 S 
ATOM      2  O   UNL     1     -61.476 -46.904 -60.277  0.00  0.00    +0.000 OA
ATOM      3  O   UNL     1     -61.273 -46.928 -57.764  0.00  0.00    +0.000 OA
ATOM      4  N   UNL     1     -60.666 -44.761 -59.087  0.00  0.00    +0.000 N 
ATOM      5  C   UNL     1     -63.202 -45.603 -58.887  0.00  0.00    +0.000 A 
ATOM      6  C   UNL     1     -63.483 -44.413 -59.555  0.00  0.00    +0.000 A 
ATOM      7  C   UNL     1     -61.121 -43.870 -60.116  0.00  0.00    +0.000 C 
ATOM      8  C   UNL     1     -62.447 -43.712 -60.337  0.00  0.00    +0.000 C 
ATOM      9  C   UNL     1     -64.148 -46.281 -58.128  0.00  0.00    +0.000 A 
ATOM     10  C   UNL     1     -60.350 -44.051 -57.835  0.00  0.00    +0.000 C 
ATOM     11  C   UNL     1     -64.787 -43.921 -59.475  0.00  0.00    +0.000 A 
ATOM     12  C   UNL     1     -65.437 -45.766 -58.052  0.00  0.00    +0.000 A 
ATOM     13  C   UNL     1     -65.759 -44.591 -58.729  0.00  0.00    +0.000 A 
ENDROOT
BRANCH   7  14
ATOM     14  C   UNL     1     -60.100 -43.143 -60.939  0.00  0.00    +0.000 C 
ATOM     15  O   UNL     1     -59.931 -41.938 -60.761  0.00  0.00    +0.000 OA
ATOM     16  N   UNL     1     -59.430 -43.917 -61.850  0.00  0.00    +0.000 N 
ATOM     17  H   UNL     1     -59.584 -44.919 -61.887  0.00  0.00    +0.000 HD
BRANCH  16  18
ATOM     18  C   UNL     1     -58.457 -43.484 -62.752  0.00  0.00    +0.000 A 
ATOM     19  N   UNL     1     -58.944 -42.798 -63.806  0.00  0.00    +0.000 NA
ATOM     20  C   UNL     1     -58.042 -42.350 -64.710  0.00  0.00    +0.000 A 
ATOM     21  C   UNL     1     -56.677 -42.550 -64.616  0.00  0.00    +0.000 A 
ATOM     22  C   UNL     1     -56.209 -43.258 -63.518  0.00  0.00    +0.000 A 
ATOM     23  C   UNL     1     -57.105 -43.734 -62.568  0.00  0.00    +0.000 A 
ENDBRANCH  16  18
ENDBRANCH   7  14
BRANCH   8  24
ATOM     24  O   UNL     1     -62.969 -42.871 -61.306  0.00  0.00    +0.000 OA
ATOM     25  H   UNL     1     -63.885 -43.153 -61.531  0.00  0.00    +0.000 HD
ENDBRANCH   8  24
TORSDOF 3
ENDMDL
MODEL 3
REMARK VINA RESULT:      -5.6      3.251      3.741
REMARK  Name = Piroxicam.pdbqt.pdb
REMARK  3 active torsions:
REMARK  status: ('A' for Active; 'I' for Inactive)
REMARK    1  A    between atoms: C_7  and  C_14
REMARK    2  A    between atoms: C_8  and  O_24
REMARK    3  A    between atoms: N_16  and  C_18
REMARK                            x       y       z     vdW  Elec       q    Type
REMARK                         _______ _______ _______ _____ _____    ______ ____
ROOT
ATOM      1  S   UNL     1     -63.980 -45.267 -57.018  0.00  0.00    +0.000 S 
ATOM      2  O   UNL     1     -63.262 -46.078 -56.052  0.00  0.00    +0.000 OA
ATOM      3  O   UNL     1     -65.227 -44.620 -56.661  0.00  0.00    +0.000 OA
ATOM      4  N   UNL     1     -62.884 -44.125 -57.697  0.00  0.00    +0.000 N 
ATOM      5  C   UNL     1     -64.282 -46.299 -58.400  0.00  0.00    +0.000 A 
ATOM      6  C   UNL     1     -63.240 -46.481 -59.307  0.00  0.00    +0.000 A 
ATOM      7  C   UNL     1     -61.757 -44.730 -58.348  0.00  0.00    +0.000 C 
ATOM      8  C   UNL     1     -61.926 -45.842 -59.101  0.00  0.00    +0.000 C 
ATOM      9  C   UNL     1     -65.537 -46.872 -58.572  0.00  0.00    +0.000 A 
ATOM     10  C   UNL     1     -63.430 -42.994 -58.467  0.00  0.00    +0.000 C 
ATOM     11  C   UNL     1     -63.478 -47.311 -60.404  0.00  0.00    +0.000 A 
ATOM     12  C   UNL     1     -65.754 -47.684 -59.679  0.00  0.00    +0.000 A 
ATOM     13  C   UNL     1     -64.725 -47.909 -60.591  0.00  0.00    +0.000 A 
ENDROOT
BRANCH   7  14
ATOM     14  C   UNL     1     -60.403 -44.114 -58.159  0.00  0.00    +0.000 C 
ATOM     15  O   UNL     1     -59.821 -43.630 -59.128  0.00  0.00    +0.000 OA
ATOM     16  N   UNL     1     -59.919 -44.156 -56.877  0.00  0.00    +0.000 N 
ATOM     17  H   UNL     1     -60.493 -44.516 -56.122  0.00  0.00    +0.000 HD
BRANCH  16  18
ATOM     18  C   UNL     1     -58.682 -43.682 -56.440  0.00  0.00    +0.000 A 
ATOM     19  N   UNL     1     -58.655 -42.359 -56.179  0.00  0.00    +0.000 NA
ATOM     20  C   UNL     1     -57.480 -41.846 -55.748  0.00  0.00    +0.000 A 
ATOM     21  C   UNL     1     -56.327 -42.587 -55.561  0.00  0.00    +0.000 A 
ATOM     22  C   UNL     1     -56.389 -43.946 -55.836  0.00  0.00    +0.000 A 
ATOM     23  C   UNL     1     -57.579 -44.509 -56.281  0.00  0.00    +0.000 A 
ENDBRANCH  16  18
ENDBRANCH   7  14
BRANCH   8  24
ATOM     24  O   UNL     1     -60.895 -46.484 -59.765  0.00  0.00    +0.000 OA
ATOM     25  H   UNL     1     -60.299 -45.817 -60.176  0.00  0.00    +0.000 HD
ENDBRANCH   8  24
TORSDOF 3
ENDMDL
MODEL 4
REMARK VINA RESULT:      -5.3     23.492     25.748
REMARK  Name = Piroxicam.pdbqt.pdb
REMARK  3 active torsions:
REMARK  status: ('A' for Active; 'I' for Inactive)
REMARK    1  A    between atoms: C_7  and  C_14
REMARK    2  A    between atoms: C_8  and  O_24
REMARK    3  A    between atoms: N_16  and  C_18
REMARK                            x       y       z     vdW  Elec       q    Type
REMARK                         _______ _______ _______ _____ _____    ______ ____
ROOT
ATOM      1  S   UNL     1     -52.598 -66.592 -72.195  0.00  0.00    +0.000 S 
ATOM      2  O   UNL     1     -52.401 -65.917 -70.926  0.00  0.00    +0.000 OA
ATOM      3  O   UNL     1     -51.847 -67.788 -72.522  0.00  0.00    +0.000 OA
ATOM      4  N   UNL     1     -54.285 -66.862 -72.416  0.00  0.00    +0.000 N 
ATOM      5  C   UNL     1     -52.287 -65.401 -73.440  0.00  0.00    +0.000 A 
ATOM      6  C   UNL     1     -53.310 -64.504 -73.742  0.00  0.00    +0.000 A 
ATOM      7  C   UNL     1     -55.064 -65.657 -72.408  0.00  0.00    +0.000 C 
ATOM      8  C   UNL     1     -54.600 -64.547 -73.029  0.00  0.00    +0.000 C 
ATOM      9  C   UNL     1     -51.065 -65.399 -74.104  0.00  0.00    +0.000 A 
ATOM     10  C   UNL     1     -54.717 -67.797 -73.469  0.00  0.00    +0.000 C 
ATOM     11  C   UNL     1     -53.058 -63.548 -74.728  0.00  0.00    +0.000 A 
ATOM     12  C   UNL     1     -50.843 -64.447 -75.090  0.00  0.00    +0.000 A 
ATOM     13  C   UNL     1     -51.835 -63.518 -75.399  0.00  0.00    +0.000 A 
ENDROOT
BRANCH   7  14
ATOM     14  C   UNL     1     -56.379 -65.657 -71.688  0.00  0.00    +0.000 C 
ATOM     15  O   UNL     1     -56.427 -66.042 -70.521  0.00  0.00    +0.000 OA
ATOM     16  N   UNL     1     -57.446 -65.216 -72.429  0.00  0.00    +0.000 N 
ATOM     17  H   UNL     1     -57.308 -64.854 -73.365  0.00  0.00    +0.000 HD
BRANCH  16  18
ATOM     18  C   UNL     1     -58.775 -65.144 -72.008  0.00  0.00    +0.000 A 
ATOM     19  N   UNL     1     -59.004 -64.226 -71.048  0.00  0.00    +0.000 NA
ATOM     20  C   UNL     1     -60.277 -64.110 -70.606  0.00  0.00    +0.000 A 
ATOM     21  C   UNL     1     -61.337 -64.864 -71.075  0.00  0.00    +0.000 A 
ATOM     22  C   UNL     1     -61.069 -65.798 -72.065  0.00  0.00    +0.000 A 
ATOM     23  C   UNL     1     -59.772 -65.946 -72.544  0.00  0.00    +0.000 A 
ENDBRANCH  16  18
ENDBRANCH   7  14
BRANCH   8  24
ATOM     24  O   UNL     1     -55.289 -63.346 -73.071  0.00  0.00    +0.000 OA
ATOM     25  H   UNL     1     -56.255 -63.515 -72.979  0.00  0.00    +0.000 HD
ENDBRANCH   8  24
TORSDOF 3
ENDMDL
MODEL 5
REMARK VINA RESULT:      -5.3     39.984     42.158
REMARK  Name = Piroxicam.pdbqt.pdb
REMARK  3 active torsions:
REMARK  status: ('A' for Active; 'I' for Inactive)
REMARK    1  A    between atoms: C_7  and  C_14
REMARK    2  A    between atoms: C_8  and  O_24
REMARK    3  A    between atoms: N_16  and  C_18
REMARK                            x       y       z     vdW  Elec       q    Type
REMARK                         _______ _______ _______ _____ _____    ______ ____
ROOT
ATOM      1  S   UNL     1     -61.517 -55.258 -17.184  0.00  0.00    +0.000 S 
ATOM      2  O   UNL     1     -61.590 -56.491 -17.946  0.00  0.00    +0.000 OA
ATOM      3  O   UNL     1     -60.562 -55.111 -16.103  0.00  0.00    +0.000 OA
ATOM      4  N   UNL     1     -61.384 -53.941 -18.286  0.00  0.00    +0.000 N 
ATOM      5  C   UNL     1     -63.119 -54.986 -16.533  0.00  0.00    +0.000 A 
ATOM      6  C   UNL     1     -64.071 -54.423 -17.381  0.00  0.00    +0.000 A 
ATOM      7  C   UNL     1     -62.482 -53.852 -19.207  0.00  0.00    +0.000 C 
ATOM      8  C   UNL     1     -63.745 -54.084 -18.779  0.00  0.00    +0.000 C 
ATOM      9  C   UNL     1     -63.387 -55.302 -15.206  0.00  0.00    +0.000 A 
ATOM     10  C   UNL     1     -60.987 -52.622 -17.764  0.00  0.00    +0.000 C 
ATOM     11  C   UNL     1     -65.351 -54.215 -16.865  0.00  0.00    +0.000 A 
ATOM     12  C   UNL     1     -64.665 -55.073 -14.711  0.00  0.00    +0.000 A 
ATOM     13  C   UNL     1     -65.649 -54.536 -15.539  0.00  0.00    +0.000 A 
ENDROOT
BRANCH   7  14
ATOM     14  C   UNL     1     -62.192 -53.515 -20.639  0.00  0.00    +0.000 C 
ATOM     15  O   UNL     1     -62.714 -52.522 -21.142  0.00  0.00    +0.000 OA
ATOM     16  N   UNL     1     -61.346 -54.384 -21.280  0.00  0.00    +0.000 N 
ATOM     17  H   UNL     1     -60.906 -55.142 -20.772  0.00  0.00    +0.000 HD
BRANCH  16  18
ATOM     18  C   UNL     1     -60.939 -54.315 -22.613  0.00  0.00    +0.000 A 
ATOM     19  N   UNL     1     -59.978 -53.400 -22.854  0.00  0.00    +0.000 NA
ATOM     20  C   UNL     1     -59.543 -53.294 -24.130  0.00  0.00    +0.000 A 
ATOM     21  C   UNL     1     -60.018 -54.058 -25.182  0.00  0.00    +0.000 A 
ATOM     22  C   UNL     1     -61.005 -54.991 -24.900  0.00  0.00    +0.000 A 
ATOM     23  C   UNL     1     -61.477 -55.128 -23.600  0.00  0.00    +0.000 A 
ENDBRANCH  16  18
ENDBRANCH   7  14
BRANCH   8  24
ATOM     24  O   UNL     1     -64.858 -54.015 -19.599  0.00  0.00    +0.000 OA
ATOM     25  H   UNL     1     -65.507 -53.376 -19.225  0.00  0.00    +0.000 HD
ENDBRANCH   8  24
TORSDOF 3
ENDMDL
MODEL 6
REMARK VINA RESULT:      -5.1      3.997      8.636
REMARK  Name = Piroxicam.pdbqt.pdb
REMARK  3 active torsions:
REMARK  status: ('A' for Active; 'I' for Inactive)
REMARK    1  A    between atoms: C_7  and  C_14
REMARK    2  A    between atoms: C_8  and  O_24
REMARK    3  A    between atoms: N_16  and  C_18
REMARK                            x       y       z     vdW  Elec       q    Type
REMARK                         _______ _______ _______ _____ _____    ______ ____
ROOT
ATOM      1  S   UNL     1     -63.522 -44.981 -57.418  0.00  0.00    +0.000 S 
ATOM      2  O   UNL     1     -64.271 -43.841 -57.912  0.00  0.00    +0.000 OA
ATOM      3  O   UNL     1     -62.441 -44.802 -56.469  0.00  0.00    +0.000 OA
ATOM      4  N   UNL     1     -64.638 -46.161 -56.842  0.00  0.00    +0.000 N 
ATOM      5  C   UNL     1     -62.876 -45.795 -58.827  0.00  0.00    +0.000 A 
ATOM      6  C   UNL     1     -63.732 -46.643 -59.529  0.00  0.00    +0.000 A 
ATOM      7  C   UNL     1     -65.561 -46.613 -57.843  0.00  0.00    +0.000 C 
ATOM      8  C   UNL     1     -65.133 -46.834 -59.108  0.00  0.00    +0.000 C 
ATOM      9  C   UNL     1     -61.547 -45.604 -59.185  0.00  0.00    +0.000 A 
ATOM     10  C   UNL     1     -64.128 -47.268 -56.014  0.00  0.00    +0.000 C 
ATOM     11  C   UNL     1     -63.220 -47.284 -60.658  0.00  0.00    +0.000 A 
ATOM     12  C   UNL     1     -61.056 -46.264 -60.305  0.00  0.00    +0.000 A 
ATOM     13  C   UNL     1     -61.892 -47.098 -61.045  0.00  0.00    +0.000 A 
ENDROOT
BRANCH   7  14
ATOM     14  C   UNL     1     -66.996 -46.815 -57.458  0.00  0.00    +0.000 C 
ATOM     15  O   UNL     1     -67.556 -45.973 -56.758  0.00  0.00    +0.000 OA
ATOM     16  N   UNL     1     -67.570 -47.965 -57.937  0.00  0.00    +0.000 N 
ATOM     17  H   UNL     1     -67.056 -48.574 -58.564  0.00  0.00    +0.000 HD
BRANCH  16  18
ATOM     18  C   UNL     1     -68.874 -48.401 -57.703  0.00  0.00    +0.000 A 
ATOM     19  N   UNL     1     -69.801 -47.832 -58.501  0.00  0.00    +0.000 NA
ATOM     20  C   UNL     1     -71.083 -48.223 -58.320  0.00  0.00    +0.000 A 
ATOM     21  C   UNL     1     -71.490 -49.155 -57.383  0.00  0.00    +0.000 A 
ATOM     22  C   UNL     1     -70.512 -49.724 -56.580  0.00  0.00    +0.000 A 
ATOM     23  C   UNL     1     -69.183 -49.347 -56.736  0.00  0.00    +0.000 A 
ENDBRANCH  16  18
ENDBRANCH   7  14
BRANCH   8  24
ATOM     24  O   UNL     1     -65.956 -47.274 -60.132  0.00  0.00    +0.000 OA
ATOM     25  H   UNL     1     -66.699 -46.640 -60.254  0.00  0.00    +0.000 HD
ENDBRANCH   8  24
TORSDOF 3
ENDMDL
MODEL 7
REMARK VINA RESULT:      -5.1     43.485     46.113
REMARK  Name = Piroxicam.pdbqt.pdb
REMARK  3 active torsions:
REMARK  status: ('A' for Active; 'I' for Inactive)
REMARK    1  A    between atoms: C_7  and  C_14
REMARK    2  A    between atoms: C_8  and  O_24
REMARK    3  A    between atoms: N_16  and  C_18
REMARK                            x       y       z     vdW  Elec       q    Type
REMARK                         _______ _______ _______ _____ _____    ______ ____
ROOT
ATOM      1  S   UNL     1     -62.185 -53.455 -16.316  0.00  0.00    +0.000 S 
ATOM      2  O   UNL     1     -62.413 -53.121 -14.922  0.00  0.00    +0.000 OA
ATOM      3  O   UNL     1     -61.038 -52.924 -17.027  0.00  0.00    +0.000 OA
ATOM      4  N   UNL     1     -62.257 -55.168 -16.487  0.00  0.00    +0.000 N 
ATOM      5  C   UNL     1     -63.629 -52.974 -17.181  0.00  0.00    +0.000 A 
ATOM      6  C   UNL     1     -64.722 -53.836 -17.138  0.00  0.00    +0.000 A 
ATOM      7  C   UNL     1     -63.511 -55.732 -16.076  0.00  0.00    +0.000 C 
ATOM      8  C   UNL     1     -64.670 -55.101 -16.379  0.00  0.00    +0.000 C 
ATOM      9  C   UNL     1     -63.638 -51.784 -17.899  0.00  0.00    +0.000 A 
ATOM     10  C   UNL     1     -61.757 -55.774 -17.733  0.00  0.00    +0.000 C 
ATOM     11  C   UNL     1     -65.877 -53.448 -17.820  0.00  0.00    +0.000 A 
ATOM     12  C   UNL     1     -64.794 -51.425 -18.581  0.00  0.00    +0.000 A 
ATOM     13  C   UNL     1     -65.915 -52.251 -18.537  0.00  0.00    +0.000 A 
ENDROOT
BRANCH   7  14
ATOM     14  C   UNL     1     -63.502 -57.013 -15.296  0.00  0.00    +0.000 C 
ATOM     15  O   UNL     1     -62.737 -57.131 -14.340  0.00  0.00    +0.000 OA
ATOM     16  N   UNL     1     -64.374 -57.971 -15.744  0.00  0.00    +0.000 N 
ATOM     17  H   UNL     1     -65.018 -57.768 -16.500  0.00  0.00    +0.000 HD
BRANCH  16  18
ATOM     18  C   UNL     1     -64.542 -59.253 -15.217  0.00  0.00    +0.000 A 
ATOM     19  N   UNL     1     -64.165 -60.247 -16.047  0.00  0.00    +0.000 NA
ATOM     20  C   UNL     1     -64.302 -61.511 -15.585  0.00  0.00    +0.000 A 
ATOM     21  C   UNL     1     -64.794 -61.835 -14.333  0.00  0.00    +0.000 A 
ATOM     22  C   UNL     1     -65.170 -60.789 -13.503  0.00  0.00    +0.000 A 
ATOM     23  C   UNL     1     -65.045 -59.477 -13.944  0.00  0.00    +0.000 A 
ENDBRANCH  16  18
ENDBRANCH   7  14
BRANCH   8  24
ATOM     24  O   UNL     1     -65.920 -55.577 -16.024  0.00  0.00    +0.000 OA
ATOM     25  H   UNL     1     -66.381 -54.913 -15.462  0.00  0.00    +0.000 HD
ENDBRANCH   8  24
TORSDOF 3
ENDMDL
MODEL 8
REMARK VINA RESULT:      -5.1     18.438     20.885
REMARK  Name = Piroxicam.pdbqt.pdb
REMARK  3 active torsions:
REMARK  status: ('A' for Active; 'I' for Inactive)
REMARK    1  A    between atoms: C_7  and  C_14
REMARK    2  A    between atoms: C_8  and  O_24
REMARK    3  A    between atoms: N_16  and  C_18
REMARK                            x       y       z     vdW  Elec       q    Type
REMARK                         _______ _______ _______ _____ _____    ______ ____
ROOT
ATOM      1  S   UNL     1     -64.892 -62.018 -71.658  0.00  0.00    +0.000 S 
ATOM      2  O   UNL     1     -64.241 -60.987 -70.872  0.00  0.00    +0.000 OA
ATOM      3  O   UNL     1     -64.136 -63.139 -72.181  0.00  0.00    +0.000 OA
ATOM      4  N   UNL     1     -66.273 -62.576 -70.793  0.00  0.00    +0.000 N 
ATOM      5  C   UNL     1     -65.653 -61.202 -73.008  0.00  0.00    +0.000 A 
ATOM      6  C   UNL     1     -66.880 -60.583 -72.777  0.00  0.00    +0.000 A 
ATOM      7  C   UNL     1     -67.227 -61.542 -70.508  0.00  0.00    +0.000 C 
ATOM      8  C   UNL     1     -67.507 -60.602 -71.441  0.00  0.00    +0.000 C 
ATOM      9  C   UNL     1     -65.042 -61.218 -74.257  0.00  0.00    +0.000 A 
ATOM     10  C   UNL     1     -66.922 -63.825 -71.230  0.00  0.00    +0.000 C 
ATOM     11  C   UNL     1     -67.482 -59.924 -73.850  0.00  0.00    +0.000 A 
ATOM     12  C   UNL     1     -65.667 -60.566 -75.313  0.00  0.00    +0.000 A 
ATOM     13  C   UNL     1     -66.882 -59.915 -75.110  0.00  0.00    +0.000 A 
ENDROOT
BRANCH   7  14
ATOM     14  C   UNL     1     -67.882 -61.522 -69.159  0.00  0.00    +0.000 C 
ATOM     15  O   UNL     1     -68.674 -62.414 -68.861  0.00  0.00    +0.000 OA
ATOM     16  N   UNL     1     -67.527 -60.467 -68.357  0.00  0.00    +0.000 N 
ATOM     17  H   UNL     1     -66.815 -59.811 -68.656  0.00  0.00    +0.000 HD
BRANCH  16  18
ATOM     18  C   UNL     1     -68.009 -60.200 -67.075  0.00  0.00    +0.000 A 
ATOM     19  N   UNL     1     -67.198 -60.612 -66.080  0.00  0.00    +0.000 NA
ATOM     20  C   UNL     1     -67.615 -60.375 -64.815  0.00  0.00    +0.000 A 
ATOM     21  C   UNL     1     -68.803 -59.744 -64.491  0.00  0.00    +0.000 A 
ATOM     22  C   UNL     1     -69.614 -59.330 -65.538  0.00  0.00    +0.000 A 
ATOM     23  C   UNL     1     -69.219 -59.558 -66.851  0.00  0.00    +0.000 A 
ENDBRANCH  16  18
ENDBRANCH   7  14
BRANCH   8  24
ATOM     24  O   UNL     1     -68.414 -59.574 -71.248  0.00  0.00    +0.000 OA
ATOM     25  H   UNL     1     -69.280 -59.946 -70.962  0.00  0.00    +0.000 HD
ENDBRANCH   8  24
TORSDOF 3
ENDMDL
MODEL 9
REMARK VINA RESULT:      -5.0     20.996     22.958
REMARK  Name = Piroxicam.pdbqt.pdb
REMARK  3 active torsions:
REMARK  status: ('A' for Active; 'I' for Inactive)
REMARK    1  A    between atoms: C_7  and  C_14
REMARK    2  A    between atoms: C_8  and  O_24
REMARK    3  A    between atoms: N_16  and  C_18
REMARK                            x       y       z     vdW  Elec       q    Type
REMARK                         _______ _______ _______ _____ _____    ______ ____
ROOT
ATOM      1  S   UNL     1     -64.957 -57.822 -45.002  0.00  0.00    +0.000 S 
ATOM      2  O   UNL     1     -64.023 -56.932 -45.666  0.00  0.00    +0.000 OA
ATOM      3  O   UNL     1     -65.887 -58.626 -45.770  0.00  0.00    +0.000 OA
ATOM      4  N   UNL     1     -64.081 -58.810 -43.896  0.00  0.00    +0.000 N 
ATOM      5  C   UNL     1     -65.884 -56.829 -43.898  0.00  0.00    +0.000 A 
ATOM      6  C   UNL     1     -65.298 -56.508 -42.675  0.00  0.00    +0.000 A 
ATOM      7  C   UNL     1     -63.368 -58.061 -42.900  0.00  0.00    +0.000 C 
ATOM      8  C   UNL     1     -63.941 -56.975 -42.330  0.00  0.00    +0.000 C 
ATOM      9  C   UNL     1     -67.165 -56.420 -44.248  0.00  0.00    +0.000 A 
ATOM     10  C   UNL     1     -64.746 -59.996 -43.330  0.00  0.00    +0.000 C 
ATOM     11  C   UNL     1     -66.033 -55.708 -41.798  0.00  0.00    +0.000 A 
ATOM     12  C   UNL     1     -67.883 -55.635 -43.353  0.00  0.00    +0.000 A 
ATOM     13  C   UNL     1     -67.317 -55.274 -42.132  0.00  0.00    +0.000 A 
ENDROOT
BRANCH   7  14
ATOM     14  C   UNL     1     -61.984 -58.500 -42.526  0.00  0.00    +0.000 C 
ATOM     15  O   UNL     1     -61.127 -58.601 -43.401  0.00  0.00    +0.000 OA
ATOM     16  N   UNL     1     -61.798 -58.762 -41.192  0.00  0.00    +0.000 N 
ATOM     17  H   UNL     1     -62.542 -58.588 -40.526  0.00  0.00    +0.000 HD
BRANCH  16  18
ATOM     18  C   UNL     1     -60.621 -59.208 -40.590  0.00  0.00    +0.000 A 
ATOM     19  N   UNL     1     -60.397 -60.531 -40.723  0.00  0.00    +0.000 NA
ATOM     20  C   UNL     1     -59.267 -61.018 -40.161  0.00  0.00    +0.000 A 
ATOM     21  C   UNL     1     -58.345 -60.249 -39.474  0.00  0.00    +0.000 A 
ATOM     22  C   UNL     1     -58.604 -58.891 -39.357  0.00  0.00    +0.000 A 
ATOM     23  C   UNL     1     -59.755 -58.355 -39.921  0.00  0.00    +0.000 A 
ENDBRANCH  16  18
ENDBRANCH   7  14
BRANCH   8  24
ATOM     24  O   UNL     1     -63.326 -56.201 -41.361  0.00  0.00    +0.000 OA
ATOM     25  H   UNL     1     -62.550 -55.738 -41.751  0.00  0.00    +0.000 HD
ENDBRANCH   8  24
TORSDOF 3
ENDMDL
