MODEL 1
REMARK VINA RESULT:      -5.5      0.000      0.000
REMARK  Name = PKR_Inhibitor.pdbqt.pdb
REMARK  0 active torsions:
REMARK  status: ('A' for Active; 'I' for Inactive)
REMARK                            x       y       z     vdW  Elec       q    Type
REMARK                         _______ _______ _______ _____ _____    ______ ____
ROOT
ATOM      1  S   UNL     1     -64.137 -45.578 -56.749  0.00  0.00    +0.000 S 
ATOM      2  O   UNL     1     -60.861 -45.566 -61.513  0.00  0.00    +0.000 OA
ATOM      3  N   UNL     1     -62.848 -46.798 -61.328  0.00  0.00    +0.000 N 
ATOM      4  N   UNL     1     -66.237 -47.091 -57.017  0.00  0.00    +0.000 NA
ATOM      5  C   UNL     1     -63.504 -46.271 -59.206  0.00  0.00    +0.000 A 
ATOM      6  C   UNL     1     -63.828 -47.013 -60.370  0.00  0.00    +0.000 A 
ATOM      7  C   UNL     1     -62.228 -45.558 -59.496  0.00  0.00    +0.000 C 
ATOM      8  C   UNL     1     -64.384 -46.392 -58.184  0.00  0.00    +0.000 A 
ATOM      9  C   UNL     1     -61.841 -45.935 -60.896  0.00  0.00    +0.000 C 
ATOM     10  C   UNL     1     -65.529 -47.159 -58.205  0.00  0.00    +0.000 A 
ATOM     11  C   UNL     1     -64.952 -47.822 -60.512  0.00  0.00    +0.000 A 
ATOM     12  C   UNL     1     -61.529 -44.759 -58.754  0.00  0.00    +0.000 C 
ATOM     13  C   UNL     1     -65.809 -47.880 -59.389  0.00  0.00    +0.000 A 
ATOM     14  C   UNL     1     -65.594 -46.291 -56.192  0.00  0.00    +0.000 A 
ATOM     15  H   UNL     1     -62.842 -47.211 -62.250  0.00  0.00    +0.000 HD
ATOM     16  C   UNL     1     -60.710 -43.879 -58.008  0.00  0.00    +0.000 C 
ATOM     17  N   UNL     1     -59.550 -43.314 -58.460  0.00  0.00    +0.000 N 
ATOM     18  C   UNL     1     -59.053 -42.531 -57.455  0.00  0.00    +0.000 C 
ATOM     19  H   UNL     1     -59.130 -43.447 -59.369  0.00  0.00    +0.000 HD
ATOM     20  N   UNL     1     -59.828 -42.565 -56.393  0.00  0.00    +0.000 NA
ATOM     21  C   UNL     1     -60.864 -43.403 -56.726  0.00  0.00    +0.000 C 
ENDROOT
TORSDOF 0
ENDMDL
MODEL 2
REMARK VINA RESULT:      -5.1     25.721     28.275
REMARK  Name = PKR_Inhibitor.pdbqt.pdb
REMARK  0 active torsions:
REMARK  status: ('A' for Active; 'I' for Inactive)
REMARK                            x       y       z     vdW  Elec       q    Type
REMARK                         _______ _______ _______ _____ _____    ______ ____
ROOT
ATOM      1  S   UNL     1     -71.025 -55.711 -35.343  0.00  0.00    +0.000 S 
ATOM      2  O   UNL     1     -67.208 -58.362 -31.904  0.00  0.00    +0.000 OA
ATOM      3  N   UNL     1     -67.295 -58.701 -34.224  0.00  0.00    +0.000 N 
ATOM      4  N   UNL     1     -70.735 -56.403 -37.834  0.00  0.00    +0.000 NA
ATOM      5  C   UNL     1     -69.021 -57.329 -34.811  0.00  0.00    +0.000 A 
ATOM      6  C   UNL     1     -68.052 -58.244 -35.292  0.00  0.00    +0.000 A 
ATOM      7  C   UNL     1     -68.825 -57.235 -33.336  0.00  0.00    +0.000 C 
ATOM      8  C   UNL     1     -69.835 -56.803 -35.757  0.00  0.00    +0.000 A 
ATOM      9  C   UNL     1     -67.684 -58.151 -33.002  0.00  0.00    +0.000 C 
ATOM     10  C   UNL     1     -69.780 -57.089 -37.104  0.00  0.00    +0.000 A 
ATOM     11  C   UNL     1     -67.897 -58.614 -36.625  0.00  0.00    +0.000 A 
ATOM     12  C   UNL     1     -69.459 -56.535 -32.451  0.00  0.00    +0.000 C 
ATOM     13  C   UNL     1     -68.794 -58.008 -37.535  0.00  0.00    +0.000 A 
ATOM     14  C   UNL     1     -71.436 -55.655 -37.007  0.00  0.00    +0.000 A 
ATOM     15  H   UNL     1     -66.535 -59.364 -34.296  0.00  0.00    +0.000 HD
ATOM     16  C   UNL     1     -70.102 -55.803 -31.424  0.00  0.00    +0.000 C 
ATOM     17  N   UNL     1     -69.767 -55.851 -30.100  0.00  0.00    +0.000 N 
ATOM     18  C   UNL     1     -70.612 -55.011 -29.429  0.00  0.00    +0.000 C 
ATOM     19  H   UNL     1     -69.031 -56.405 -29.684  0.00  0.00    +0.000 HD
ATOM     20  N   UNL     1     -71.462 -54.432 -30.248  0.00  0.00    +0.000 NA
ATOM     21  C   UNL     1     -71.153 -54.919 -31.496  0.00  0.00    +0.000 C 
ENDROOT
TORSDOF 0
ENDMDL
MODEL 3
REMARK VINA RESULT:      -5.1     25.938     28.035
REMARK  Name = PKR_Inhibitor.pdbqt.pdb
REMARK  0 active torsions:
REMARK  status: ('A' for Active; 'I' for Inactive)
REMARK                            x       y       z     vdW  Elec       q    Type
REMARK                         _______ _______ _______ _____ _____    ______ ____
ROOT
ATOM      1  S   UNL     1     -69.023 -57.820 -36.453  0.00  0.00    +0.000 S 
ATOM      2  O   UNL     1     -70.925 -55.097 -31.721  0.00  0.00    +0.000 OA
ATOM      3  N   UNL     1     -69.217 -56.704 -31.675  0.00  0.00    +0.000 N 
ATOM      4  N   UNL     1     -67.122 -59.510 -35.905  0.00  0.00    +0.000 NA
ATOM      5  C   UNL     1     -69.076 -57.268 -33.882  0.00  0.00    +0.000 A 
ATOM      6  C   UNL     1     -68.553 -57.511 -32.587  0.00  0.00    +0.000 A 
ATOM      7  C   UNL     1     -70.138 -56.234 -33.727  0.00  0.00    +0.000 C 
ATOM      8  C   UNL     1     -68.512 -57.995 -34.876  0.00  0.00    +0.000 A 
ATOM      9  C   UNL     1     -70.191 -55.898 -32.266  0.00  0.00    +0.000 C 
ATOM     10  C   UNL     1     -67.502 -58.918 -34.712  0.00  0.00    +0.000 A 
ATOM     11  C   UNL     1     -67.536 -58.415 -32.295  0.00  0.00    +0.000 A 
ATOM     12  C   UNL     1     -70.903 -55.682 -34.613  0.00  0.00    +0.000 C 
ATOM     13  C   UNL     1     -67.013 -59.125 -33.401  0.00  0.00    +0.000 A 
ATOM     14  C   UNL     1     -67.857 -59.004 -36.874  0.00  0.00    +0.000 A 
ATOM     15  H   UNL     1     -69.034 -56.684 -30.681  0.00  0.00    +0.000 HD
ATOM     16  C   UNL     1     -71.776 -55.034 -35.519  0.00  0.00    +0.000 C 
ATOM     17  N   UNL     1     -72.702 -54.089 -35.176  0.00  0.00    +0.000 N 
ATOM     18  C   UNL     1     -73.345 -53.705 -36.320  0.00  0.00    +0.000 C 
ATOM     19  H   UNL     1     -72.885 -53.734 -34.247  0.00  0.00    +0.000 HD
ATOM     20  N   UNL     1     -72.882 -54.349 -37.369  0.00  0.00    +0.000 NA
ATOM     21  C   UNL     1     -71.903 -55.181 -36.881  0.00  0.00    +0.000 C 
ENDROOT
TORSDOF 0
ENDMDL
MODEL 4
REMARK VINA RESULT:      -5.1      2.308      5.407
REMARK  Name = PKR_Inhibitor.pdbqt.pdb
REMARK  0 active torsions:
REMARK  status: ('A' for Active; 'I' for Inactive)
REMARK                            x       y       z     vdW  Elec       q    Type
REMARK                         _______ _______ _______ _____ _____    ______ ____
ROOT
ATOM      1  S   UNL     1     -63.016 -44.728 -57.130  0.00  0.00    +0.000 S 
ATOM      2  O   UNL     1     -66.817 -47.824 -60.196  0.00  0.00    +0.000 OA
ATOM      3  N   UNL     1     -64.530 -47.731 -60.708  0.00  0.00    +0.000 N 
ATOM      4  N   UNL     1     -60.602 -44.937 -58.078  0.00  0.00    +0.000 NA
ATOM      5  C   UNL     1     -63.761 -46.341 -59.070  0.00  0.00    +0.000 A 
ATOM      6  C   UNL     1     -63.397 -47.114 -60.200  0.00  0.00    +0.000 A 
ATOM      7  C   UNL     1     -65.231 -46.513 -58.891  0.00  0.00    +0.000 C 
ATOM      8  C   UNL     1     -62.742 -45.679 -58.472  0.00  0.00    +0.000 A 
ATOM      9  C   UNL     1     -65.686 -47.431 -59.987  0.00  0.00    +0.000 C 
ATOM     10  C   UNL     1     -61.425 -45.710 -58.879  0.00  0.00    +0.000 A 
ATOM     11  C   UNL     1     -62.104 -47.225 -60.706  0.00  0.00    +0.000 A 
ATOM     12  C   UNL     1     -66.030 -46.013 -58.003  0.00  0.00    +0.000 C 
ATOM     13  C   UNL     1     -61.111 -46.497 -60.012  0.00  0.00    +0.000 A 
ATOM     14  C   UNL     1     -61.337 -44.382 -57.136  0.00  0.00    +0.000 A 
ATOM     15  H   UNL     1     -64.543 -48.341 -61.514  0.00  0.00    +0.000 HD
ATOM     16  C   UNL     1     -66.966 -45.507 -57.071  0.00  0.00    +0.000 C 
ATOM     17  N   UNL     1     -68.304 -45.788 -57.072  0.00  0.00    +0.000 N 
ATOM     18  C   UNL     1     -68.869 -45.117 -56.023  0.00  0.00    +0.000 C 
ATOM     19  H   UNL     1     -68.794 -46.383 -57.726  0.00  0.00    +0.000 HD
ATOM     20  N   UNL     1     -67.970 -44.427 -55.356  0.00  0.00    +0.000 NA
ATOM     21  C   UNL     1     -66.780 -44.662 -56.001  0.00  0.00    +0.000 C 
ENDROOT
TORSDOF 0
ENDMDL
MODEL 5
REMARK VINA RESULT:      -4.9      2.557      3.172
REMARK  Name = PKR_Inhibitor.pdbqt.pdb
REMARK  0 active torsions:
REMARK  status: ('A' for Active; 'I' for Inactive)
REMARK                            x       y       z     vdW  Elec       q    Type
REMARK                         _______ _______ _______ _____ _____    ______ ____
ROOT
ATOM      1  S   UNL     1     -66.063 -46.312 -57.423  0.00  0.00    +0.000 S 
ATOM      2  O   UNL     1     -60.397 -45.198 -57.724  0.00  0.00    +0.000 OA
ATOM      3  N   UNL     1     -61.572 -46.330 -59.410  0.00  0.00    +0.000 N 
ATOM      4  N   UNL     1     -66.917 -47.585 -59.525  0.00  0.00    +0.000 NA
ATOM      5  C   UNL     1     -63.683 -46.355 -58.542  0.00  0.00    +0.000 A 
ATOM      6  C   UNL     1     -62.876 -46.741 -59.642  0.00  0.00    +0.000 A 
ATOM      7  C   UNL     1     -62.786 -45.658 -57.578  0.00  0.00    +0.000 C 
ATOM      8  C   UNL     1     -64.990 -46.698 -58.639  0.00  0.00    +0.000 A 
ATOM      9  C   UNL     1     -61.417 -45.667 -58.191  0.00  0.00    +0.000 C 
ATOM     10  C   UNL     1     -65.560 -47.371 -59.698  0.00  0.00    +0.000 A 
ATOM     11  C   UNL     1     -63.335 -47.422 -60.766  0.00  0.00    +0.000 A 
ATOM     12  C   UNL     1     -63.047 -45.124 -56.428  0.00  0.00    +0.000 C 
ATOM     13  C   UNL     1     -64.714 -47.734 -60.772  0.00  0.00    +0.000 A 
ATOM     14  C   UNL     1     -67.277 -47.070 -58.367  0.00  0.00    +0.000 A 
ATOM     15  H   UNL     1     -60.798 -46.481 -60.041  0.00  0.00    +0.000 HD
ATOM     16  C   UNL     1     -63.251 -44.520 -55.164  0.00  0.00    +0.000 C 
ATOM     17  N   UNL     1     -62.279 -43.916 -54.418  0.00  0.00    +0.000 N 
ATOM     18  C   UNL     1     -62.863 -43.457 -53.270  0.00  0.00    +0.000 C 
ATOM     19  H   UNL     1     -61.302 -43.822 -54.663  0.00  0.00    +0.000 HD
ATOM     20  N   UNL     1     -64.148 -43.733 -53.244  0.00  0.00    +0.000 NA
ATOM     21  C   UNL     1     -64.402 -44.396 -54.420  0.00  0.00    +0.000 C 
ENDROOT
TORSDOF 0
ENDMDL
MODEL 6
REMARK VINA RESULT:      -4.8     46.119     48.393
REMARK  Name = PKR_Inhibitor.pdbqt.pdb
REMARK  0 active torsions:
REMARK  status: ('A' for Active; 'I' for Inactive)
REMARK                            x       y       z     vdW  Elec       q    Type
REMARK                         _______ _______ _______ _____ _____    ______ ____
ROOT
ATOM      1  S   UNL     1     -63.855 -57.028 -12.501  0.00  0.00    +0.000 S 
ATOM      2  O   UNL     1     -66.446 -62.196 -12.554  0.00  0.00    +0.000 OA
ATOM      3  N   UNL     1     -65.344 -61.296 -14.420  0.00  0.00    +0.000 N 
ATOM      4  N   UNL     1     -62.771 -56.459 -14.797  0.00  0.00    +0.000 NA
ATOM      5  C   UNL     1     -64.623 -59.296 -13.589  0.00  0.00    +0.000 A 
ATOM      6  C   UNL     1     -64.651 -60.136 -14.731  0.00  0.00    +0.000 A 
ATOM      7  C   UNL     1     -65.360 -60.016 -12.512  0.00  0.00    +0.000 C 
ATOM      8  C   UNL     1     -63.972 -58.120 -13.755  0.00  0.00    +0.000 A 
ATOM      9  C   UNL     1     -65.811 -61.318 -13.105  0.00  0.00    +0.000 C 
ATOM     10  C   UNL     1     -63.359 -57.707 -14.918  0.00  0.00    +0.000 A 
ATOM     11  C   UNL     1     -64.070 -59.830 -15.959  0.00  0.00    +0.000 A 
ATOM     12  C   UNL     1     -65.607 -59.666 -11.290  0.00  0.00    +0.000 C 
ATOM     13  C   UNL     1     -63.414 -58.580 -16.031  0.00  0.00    +0.000 A 
ATOM     14  C   UNL     1     -62.974 -56.019 -13.572  0.00  0.00    +0.000 A 
ATOM     15  H   UNL     1     -65.508 -62.060 -15.060  0.00  0.00    +0.000 HD
ATOM     16  C   UNL     1     -65.918 -59.357  -9.944  0.00  0.00    +0.000 C 
ATOM     17  N   UNL     1     -66.619 -60.167  -9.096  0.00  0.00    +0.000 N 
ATOM     18  C   UNL     1     -66.713 -59.524  -7.893  0.00  0.00    +0.000 C 
ATOM     19  H   UNL     1     -67.003 -61.077  -9.311  0.00  0.00    +0.000 HD
ATOM     20  N   UNL     1     -66.113 -58.355  -7.927  0.00  0.00    +0.000 NA
ATOM     21  C   UNL     1     -65.613 -58.240  -9.202  0.00  0.00    +0.000 C 
ENDROOT
TORSDOF 0
ENDMDL
MODEL 7
REMARK VINA RESULT:      -4.8     39.302     41.542
REMARK  Name = PKR_Inhibitor.pdbqt.pdb
REMARK  0 active torsions:
REMARK  status: ('A' for Active; 'I' for Inactive)
REMARK                            x       y       z     vdW  Elec       q    Type
REMARK                         _______ _______ _______ _____ _____    ______ ____
ROOT
ATOM      1  S   UNL     1     -45.044 -60.866 -90.647  0.00  0.00    +0.000 S 
ATOM      2  O   UNL     1     -44.455 -59.533 -96.242  0.00  0.00    +0.000 OA
ATOM      3  N   UNL     1     -43.688 -61.548 -95.317  0.00  0.00    +0.000 N 
ATOM      4  N   UNL     1     -44.041 -63.202 -90.093  0.00  0.00    +0.000 NA
ATOM      5  C   UNL     1     -44.292 -61.293 -93.131  0.00  0.00    +0.000 A 
ATOM      6  C   UNL     1     -43.670 -62.154 -94.070  0.00  0.00    +0.000 A 
ATOM      7  C   UNL     1     -44.712 -60.076 -93.881  0.00  0.00    +0.000 C 
ATOM      8  C   UNL     1     -44.343 -61.766 -91.863  0.00  0.00    +0.000 A 
ATOM      9  C   UNL     1     -44.295 -60.292 -95.306  0.00  0.00    +0.000 C 
ATOM     10  C   UNL     1     -43.849 -62.983 -91.447  0.00  0.00    +0.000 A 
ATOM     11  C   UNL     1     -43.134 -63.404 -93.772  0.00  0.00    +0.000 A 
ATOM     12  C   UNL     1     -45.318 -59.008 -93.470  0.00  0.00    +0.000 C 
ATOM     13  C   UNL     1     -43.238 -63.807 -92.421  0.00  0.00    +0.000 A 
ATOM     14  C   UNL     1     -44.657 -62.155 -89.585  0.00  0.00    +0.000 A 
ATOM     15  H   UNL     1     -43.308 -61.952 -96.162  0.00  0.00    +0.000 HD
ATOM     16  C   UNL     1     -45.975 -57.810 -93.099  0.00  0.00    +0.000 C 
ATOM     17  N   UNL     1     -46.281 -56.788 -93.953  0.00  0.00    +0.000 N 
ATOM     18  C   UNL     1     -46.908 -55.815 -93.225  0.00  0.00    +0.000 C 
ATOM     19  H   UNL     1     -46.082 -56.750 -94.943  0.00  0.00    +0.000 HD
ATOM     20  N   UNL     1     -47.019 -56.159 -91.961  0.00  0.00    +0.000 NA
ATOM     21  C   UNL     1     -46.440 -57.402 -91.871  0.00  0.00    +0.000 C 
ENDROOT
TORSDOF 0
ENDMDL
MODEL 8
REMARK VINA RESULT:      -4.7     18.525     20.521
REMARK  Name = PKR_Inhibitor.pdbqt.pdb
REMARK  0 active torsions:
REMARK  status: ('A' for Active; 'I' for Inactive)
REMARK                            x       y       z     vdW  Elec       q    Type
REMARK                         _______ _______ _______ _____ _____    ______ ____
ROOT
ATOM      1  S   UNL     1     -68.509 -59.657 -71.888  0.00  0.00    +0.000 S 
ATOM      2  O   UNL     1     -63.772 -62.494 -70.173  0.00  0.00    +0.000 OA
ATOM      3  N   UNL     1     -64.170 -61.896 -72.407  0.00  0.00    +0.000 N 
ATOM      4  N   UNL     1     -68.505 -59.218 -74.452  0.00  0.00    +0.000 NA
ATOM      5  C   UNL     1     -66.187 -60.843 -72.234  0.00  0.00    +0.000 A 
ATOM      6  C   UNL     1     -65.159 -61.242 -73.125  0.00  0.00    +0.000 A 
ATOM      7  C   UNL     1     -65.775 -61.298 -70.876  0.00  0.00    +0.000 C 
ATOM      8  C   UNL     1     -67.224 -60.188 -72.808  0.00  0.00    +0.000 A 
ATOM      9  C   UNL     1     -64.450 -61.980 -71.042  0.00  0.00    +0.000 C 
ATOM     10  C   UNL     1     -67.337 -59.897 -74.150  0.00  0.00    +0.000 A 
ATOM     11  C   UNL     1     -65.159 -61.006 -74.497  0.00  0.00    +0.000 A 
ATOM     12  C   UNL     1     -66.374 -61.173 -69.734  0.00  0.00    +0.000 C 
ATOM     13  C   UNL     1     -66.285 -60.315 -74.999  0.00  0.00    +0.000 A 
ATOM     14  C   UNL     1     -69.187 -59.043 -73.339  0.00  0.00    +0.000 A 
ATOM     15  H   UNL     1     -63.325 -62.281 -72.806  0.00  0.00    +0.000 HD
ATOM     16  C   UNL     1     -66.963 -61.078 -68.452  0.00  0.00    +0.000 C 
ATOM     17  N   UNL     1     -66.416 -61.567 -67.299  0.00  0.00    +0.000 N 
ATOM     18  C   UNL     1     -67.279 -61.281 -66.277  0.00  0.00    +0.000 C 
ATOM     19  H   UNL     1     -65.535 -62.055 -67.210  0.00  0.00    +0.000 HD
ATOM     20  N   UNL     1     -68.340 -60.639 -66.712  0.00  0.00    +0.000 NA
ATOM     21  C   UNL     1     -68.154 -60.506 -68.067  0.00  0.00    +0.000 C 
ENDROOT
TORSDOF 0
ENDMDL
MODEL 9
REMARK VINA RESULT:      -4.7     23.559     24.803
REMARK  Name = PKR_Inhibitor.pdbqt.pdb
REMARK  0 active torsions:
REMARK  status: ('A' for Active; 'I' for Inactive)
REMARK                            x       y       z     vdW  Elec       q    Type
REMARK                         _______ _______ _______ _____ _____    ______ ____
ROOT
ATOM      1  S   UNL     1     -64.876 -56.697 -79.187  0.00  0.00    +0.000 S 
ATOM      2  O   UNL     1     -62.149 -61.769 -78.665  0.00  0.00    +0.000 OA
ATOM      3  N   UNL     1     -61.310 -59.988 -79.941  0.00  0.00    +0.000 N 
ATOM      4  N   UNL     1     -63.561 -55.037 -80.700  0.00  0.00    +0.000 NA
ATOM      5  C   UNL     1     -62.933 -58.413 -79.630  0.00  0.00    +0.000 A 
ATOM      6  C   UNL     1     -61.695 -58.695 -80.262  0.00  0.00    +0.000 A 
ATOM      7  C   UNL     1     -63.314 -59.639 -78.873  0.00  0.00    +0.000 C 
ATOM      8  C   UNL     1     -63.428 -57.174 -79.863  0.00  0.00    +0.000 A 
ATOM      9  C   UNL     1     -62.220 -60.639 -79.108  0.00  0.00    +0.000 C 
ATOM     10  C   UNL     1     -62.827 -56.210 -80.642  0.00  0.00    +0.000 A 
ATOM     11  C   UNL     1     -60.993 -57.806 -81.071  0.00  0.00    +0.000 A 
ATOM     12  C   UNL     1     -64.353 -59.878 -78.138  0.00  0.00    +0.000 C 
ATOM     13  C   UNL     1     -61.593 -56.538 -81.251  0.00  0.00    +0.000 A 
ATOM     14  C   UNL     1     -64.649 -55.190 -79.973  0.00  0.00    +0.000 A 
ATOM     15  H   UNL     1     -60.463 -60.435 -80.263  0.00  0.00    +0.000 HD
ATOM     16  C   UNL     1     -65.457 -60.218 -77.321  0.00  0.00    +0.000 C 
ATOM     17  N   UNL     1     -65.630 -61.421 -76.697  0.00  0.00    +0.000 N 
ATOM     18  C   UNL     1     -66.809 -61.364 -76.006  0.00  0.00    +0.000 C 
ATOM     19  H   UNL     1     -65.005 -62.215 -76.735  0.00  0.00    +0.000 HD
ATOM     20  N   UNL     1     -67.394 -60.196 -76.155  0.00  0.00    +0.000 NA
ATOM     21  C   UNL     1     -66.560 -59.473 -76.973  0.00  0.00    +0.000 C 
ENDROOT
TORSDOF 0
ENDMDL
