MODEL 1
REMARK VINA RESULT:      -6.4      0.000      0.000
REMARK  Name = 
REMARK  14 active torsions:
REMARK  status: ('A' for Active; 'I' for Inactive)
REMARK    1  A    between atoms: O_1  and  C_14
REMARK    2  A    between atoms: O_1  and  C_15
REMARK    3  A    between atoms: O_4  and  C_16
REMARK    4  A    between atoms: O_5  and  C_18
REMARK    5  A    between atoms: O_6  and  C_26
REMARK    6  A    between atoms: O_7  and  C_29
REMARK    7  A    between atoms: O_8  and  C_35
REMARK    8  A    between atoms: O_9  and  C_36
REMARK    9  A    between atoms: O_10  and  C_39
REMARK   10  A    between atoms: O_11  and  C_40
REMARK   11  A    between atoms: O_12  and  C_41
REMARK   12  A    between atoms: O_13  and  C_43
REMARK   13  A    between atoms: C_14  and  C_20
REMARK   14  A    between atoms: C_17  and  C_24
REMARK                            x       y       z     vdW  Elec       q    Type
REMARK                         _______ _______ _______ _____ _____    ______ ____
ROOT
ATOM      1  O   UNL     1     -63.904 -46.212 -53.506  0.00  0.00    +0.000 OA
ATOM      2  C   UNL     1     -65.190 -46.783 -53.786  0.00  0.00    +0.000 C 
ATOM      3  C   UNL     1     -66.270 -46.243 -52.799  0.00  0.00    +0.000 C 
ATOM      4  C   UNL     1     -65.845 -46.490 -51.355  0.00  0.00    +0.000 C 
ATOM      5  C   UNL     1     -64.427 -46.064 -51.123  0.00  0.00    +0.000 A 
ATOM      6  C   UNL     1     -63.551 -45.965 -52.209  0.00  0.00    +0.000 A 
ATOM      7  C   UNL     1     -63.925 -45.797 -49.841  0.00  0.00    +0.000 A 
ATOM      8  C   UNL     1     -62.219 -45.592 -52.015  0.00  0.00    +0.000 A 
ATOM      9  C   UNL     1     -62.594 -45.444 -49.635  0.00  0.00    +0.000 A 
ATOM     10  C   UNL     1     -61.750 -45.340 -50.731  0.00  0.00    +0.000 A 
ENDROOT
BRANCH   2  11
ATOM     11  C   UNL     1     -65.174 -48.323 -53.797  0.00  0.00    +0.000 A 
ATOM     12  C   UNL     1     -66.382 -49.056 -53.804  0.00  0.00    +0.000 A 
ATOM     13  C   UNL     1     -63.961 -49.045 -53.818  0.00  0.00    +0.000 A 
ATOM     14  C   UNL     1     -66.360 -50.447 -53.817  0.00  0.00    +0.000 A 
ATOM     15  C   UNL     1     -63.949 -50.443 -53.817  0.00  0.00    +0.000 A 
ATOM     16  C   UNL     1     -65.149 -51.130 -53.809  0.00  0.00    +0.000 A 
BRANCH  14  17
ATOM     17  O   UNL     1     -67.501 -51.198 -53.844  0.00  0.00    +0.000 OA
ATOM     18  H   UNL     1     -68.083 -50.936 -53.102  0.00  0.00    +0.000 HD
ENDBRANCH  14  17
BRANCH  16  19
ATOM     19  O   UNL     1     -65.139 -52.496 -53.812  0.00  0.00    +0.000 OA
ATOM     20  H   UNL     1     -66.038 -52.745 -54.108  0.00  0.00    +0.000 HD
ENDBRANCH  16  19
ENDBRANCH   2  11
BRANCH   3  21
ATOM     21  O   UNL     1     -66.502 -44.816 -52.971  0.00  0.00    +0.000 OA
ATOM     22  H   UNL     1     -66.702 -44.484 -52.072  0.00  0.00    +0.000 HD
ENDBRANCH   3  21
BRANCH   4  23
ATOM     23  O   UNL     1     -66.713 -45.761 -50.469  0.00  0.00    +0.000 OA
ATOM     24  H   UNL     1     -67.322 -46.447 -50.113  0.00  0.00    +0.000 HD
ENDBRANCH   4  23
BRANCH   7  25
ATOM     25  O   UNL     1     -64.725 -45.852 -48.731  0.00  0.00    +0.000 OA
ATOM     26  H   UNL     1     -64.210 -45.473 -47.985  0.00  0.00    +0.000 HD
ENDBRANCH   7  25
BRANCH  10  27
ATOM     27  O   UNL     1     -60.439 -44.990 -50.588  0.00  0.00    +0.000 OA
ATOM     28  H   UNL     1     -59.906 -45.547 -51.181  0.00  0.00    +0.000 HD
ENDBRANCH  10  27
BRANCH   2  29
ATOM     29  O   UNL     1     -65.640 -46.278 -55.074  0.00  0.00    +0.000 OA
BRANCH  29  31
ATOM     30  O   UNL     1     -65.435 -47.225 -58.651  0.00  0.00    +0.000 OA
ATOM     31  C   UNL     1     -65.003 -46.818 -56.249  0.00  0.00    +0.000 C 
ATOM     32  C   UNL     1     -65.964 -46.642 -57.452  0.00  0.00    +0.000 C 
ATOM     33  C   UNL     1     -63.706 -46.075 -56.584  0.00  0.00    +0.000 C 
ATOM     34  C   UNL     1     -63.288 -46.266 -58.015  0.00  0.00    +0.000 A 
ATOM     35  C   UNL     1     -64.162 -46.824 -58.953  0.00  0.00    +0.000 A 
ATOM     36  C   UNL     1     -62.011 -45.880 -58.442  0.00  0.00    +0.000 A 
ATOM     37  C   UNL     1     -63.757 -47.036 -60.273  0.00  0.00    +0.000 A 
ATOM     38  C   UNL     1     -61.601 -46.071 -59.759  0.00  0.00    +0.000 A 
ATOM     39  C   UNL     1     -62.479 -46.654 -60.664  0.00  0.00    +0.000 A 
BRANCH  32  40
ATOM     40  C   UNL     1     -67.311 -47.297 -57.180  0.00  0.00    +0.000 A 
ATOM     41  C   UNL     1     -67.432 -48.693 -57.100  0.00  0.00    +0.000 A 
ATOM     42  C   UNL     1     -68.440 -46.499 -56.922  0.00  0.00    +0.000 A 
ATOM     43  C   UNL     1     -68.645 -49.266 -56.723  0.00  0.00    +0.000 A 
ATOM     44  C   UNL     1     -69.659 -47.080 -56.563  0.00  0.00    +0.000 A 
ATOM     45  C   UNL     1     -69.751 -48.463 -56.449  0.00  0.00    +0.000 A 
BRANCH  43  46
ATOM     46  O   UNL     1     -68.744 -50.617 -56.551  0.00  0.00    +0.000 OA
ATOM     47  H   UNL     1     -68.864 -51.040 -57.417  0.00  0.00    +0.000 HD
ENDBRANCH  43  46
BRANCH  45  48
ATOM     48  O   UNL     1     -70.915 -49.049 -56.039  0.00  0.00    +0.000 OA
ATOM     49  H   UNL     1     -70.989 -48.964 -55.074  0.00  0.00    +0.000 HD
ENDBRANCH  45  48
ENDBRANCH  32  40
BRANCH  36  50
ATOM     50  O   UNL     1     -61.163 -45.311 -57.534  0.00  0.00    +0.000 OA
ATOM     51  H   UNL     1     -60.457 -44.844 -58.012  0.00  0.00    +0.000 HD
ENDBRANCH  36  50
BRANCH  39  52
ATOM     52  O   UNL     1     -62.044 -46.834 -61.944  0.00  0.00    +0.000 OA
ATOM     53  H   UNL     1     -62.169 -46.004 -62.436  0.00  0.00    +0.000 HD
ENDBRANCH  39  52
ENDBRANCH  29  31
ENDBRANCH   2  29
TORSDOF 14
ENDMDL
MODEL 2
REMARK VINA RESULT:      -6.2     27.698     32.442
REMARK  Name = 
REMARK  14 active torsions:
REMARK  status: ('A' for Active; 'I' for Inactive)
REMARK    1  A    between atoms: O_1  and  C_14
REMARK    2  A    between atoms: O_1  and  C_15
REMARK    3  A    between atoms: O_4  and  C_16
REMARK    4  A    between atoms: O_5  and  C_18
REMARK    5  A    between atoms: O_6  and  C_26
REMARK    6  A    between atoms: O_7  and  C_29
REMARK    7  A    between atoms: O_8  and  C_35
REMARK    8  A    between atoms: O_9  and  C_36
REMARK    9  A    between atoms: O_10  and  C_39
REMARK   10  A    between atoms: O_11  and  C_40
REMARK   11  A    between atoms: O_12  and  C_41
REMARK   12  A    between atoms: O_13  and  C_43
REMARK   13  A    between atoms: C_14  and  C_20
REMARK   14  A    between atoms: C_17  and  C_24
REMARK                            x       y       z     vdW  Elec       q    Type
REMARK                         _______ _______ _______ _____ _____    ______ ____
ROOT
ATOM      1  O   UNL     1     -49.847 -62.446 -77.108  0.00  0.00    +0.000 OA
ATOM      2  C   UNL     1     -49.016 -61.300 -77.337  0.00  0.00    +0.000 C 
ATOM      3  C   UNL     1     -48.238 -60.904 -76.045  0.00  0.00    +0.000 C 
ATOM      4  C   UNL     1     -49.205 -60.677 -74.887  0.00  0.00    +0.000 C 
ATOM      5  C   UNL     1     -50.196 -61.796 -74.778  0.00  0.00    +0.000 A 
ATOM      6  C   UNL     1     -50.458 -62.596 -75.894  0.00  0.00    +0.000 A 
ATOM      7  C   UNL     1     -50.911 -62.051 -73.598  0.00  0.00    +0.000 A 
ATOM      8  C   UNL     1     -51.395 -63.630 -75.824  0.00  0.00    +0.000 A 
ATOM      9  C   UNL     1     -51.861 -63.066 -73.524  0.00  0.00    +0.000 A 
ATOM     10  C   UNL     1     -52.092 -63.853 -74.642  0.00  0.00    +0.000 A 
ENDROOT
BRANCH   2  11
ATOM     11  C   UNL     1     -49.794 -60.097 -77.903  0.00  0.00    +0.000 A 
ATOM     12  C   UNL     1     -49.150 -58.856 -78.110  0.00  0.00    +0.000 A 
ATOM     13  C   UNL     1     -51.159 -60.200 -78.244  0.00  0.00    +0.000 A 
ATOM     14  C   UNL     1     -49.859 -57.775 -78.624  0.00  0.00    +0.000 A 
ATOM     15  C   UNL     1     -51.866 -59.104 -78.747  0.00  0.00    +0.000 A 
ATOM     16  C   UNL     1     -51.210 -57.900 -78.926  0.00  0.00    +0.000 A 
BRANCH  14  17
ATOM     17  O   UNL     1     -49.275 -56.562 -78.861  0.00  0.00    +0.000 OA
ATOM     18  H   UNL     1     -49.426 -55.972 -78.096  0.00  0.00    +0.000 HD
ENDBRANCH  14  17
BRANCH  16  19
ATOM     19  O   UNL     1     -51.899 -56.830 -79.420  0.00  0.00    +0.000 OA
ATOM     20  H   UNL     1     -51.350 -56.055 -79.181  0.00  0.00    +0.000 HD
ENDBRANCH  16  19
ENDBRANCH   2  11
BRANCH   3  21
ATOM     21  O   UNL     1     -47.280 -61.927 -75.649  0.00  0.00    +0.000 OA
ATOM     22  H   UNL     1     -46.955 -61.639 -74.772  0.00  0.00    +0.000 HD
ENDBRANCH   3  21
BRANCH   4  23
ATOM     23  O   UNL     1     -48.465 -60.573 -73.658  0.00  0.00    +0.000 OA
ATOM     24  H   UNL     1     -48.744 -59.708 -73.283  0.00  0.00    +0.000 HD
ENDBRANCH   4  23
BRANCH   7  25
ATOM     25  O   UNL     1     -50.695 -61.325 -72.457  0.00  0.00    +0.000 OA
ATOM     26  H   UNL     1     -49.898 -61.701 -72.022  0.00  0.00    +0.000 HD
ENDBRANCH   7  25
BRANCH  10  27
ATOM     27  O   UNL     1     -53.005 -64.867 -74.622  0.00  0.00    +0.000 OA
ATOM     28  H   UNL     1     -53.445 -64.867 -73.755  0.00  0.00    +0.000 HD
ENDBRANCH  10  27
BRANCH   2  29
ATOM     29  O   UNL     1     -47.954 -61.685 -78.255  0.00  0.00    +0.000 OA
BRANCH  29  31
ATOM     30  O   UNL     1     -48.014 -63.435 -81.521  0.00  0.00    +0.000 OA
ATOM     31  C   UNL     1     -48.222 -62.790 -79.141  0.00  0.00    +0.000 C 
ATOM     32  C   UNL     1     -47.716 -62.415 -80.557  0.00  0.00    +0.000 C 
ATOM     33  C   UNL     1     -47.480 -64.058 -78.708  0.00  0.00    +0.000 C 
ATOM     34  C   UNL     1     -47.337 -65.050 -79.828  0.00  0.00    +0.000 A 
ATOM     35  C   UNL     1     -47.611 -64.689 -81.151  0.00  0.00    +0.000 A 
ATOM     36  C   UNL     1     -46.917 -66.361 -79.569  0.00  0.00    +0.000 A 
ATOM     37  C   UNL     1     -47.514 -65.624 -82.183  0.00  0.00    +0.000 A 
ATOM     38  C   UNL     1     -46.801 -67.299 -80.592  0.00  0.00    +0.000 A 
ATOM     39  C   UNL     1     -47.107 -66.921 -81.893  0.00  0.00    +0.000 A 
BRANCH  32  40
ATOM     40  C   UNL     1     -48.356 -61.123 -81.045  0.00  0.00    +0.000 A 
ATOM     41  C   UNL     1     -47.593 -59.956 -81.209  0.00  0.00    +0.000 A 
ATOM     42  C   UNL     1     -49.712 -61.109 -81.419  0.00  0.00    +0.000 A 
ATOM     43  C   UNL     1     -48.170 -58.823 -81.779  0.00  0.00    +0.000 A 
ATOM     44  C   UNL     1     -50.289 -59.963 -81.972  0.00  0.00    +0.000 A 
ATOM     45  C   UNL     1     -49.509 -58.828 -82.165  0.00  0.00    +0.000 A 
BRANCH  43  46
ATOM     46  O   UNL     1     -47.409 -57.716 -82.028  0.00  0.00    +0.000 OA
ATOM     47  H   UNL     1     -46.636 -57.975 -82.558  0.00  0.00    +0.000 HD
ENDBRANCH  43  46
BRANCH  45  48
ATOM     48  O   UNL     1     -50.035 -57.718 -82.761  0.00  0.00    +0.000 OA
ATOM     49  H   UNL     1     -49.915 -56.955 -82.173  0.00  0.00    +0.000 HD
ENDBRANCH  45  48
ENDBRANCH  32  40
BRANCH  36  50
ATOM     50  O   UNL     1     -46.624 -66.711 -78.280  0.00  0.00    +0.000 OA
ATOM     51  H   UNL     1     -46.353 -65.915 -77.792  0.00  0.00    +0.000 HD
ENDBRANCH  36  50
BRANCH  39  52
ATOM     52  O   UNL     1     -46.991 -67.865 -82.872  0.00  0.00    +0.000 OA
ATOM     53  H   UNL     1     -47.835 -67.922 -83.353  0.00  0.00    +0.000 HD
ENDBRANCH  39  52
ENDBRANCH  29  31
ENDBRANCH   2  29
TORSDOF 14
ENDMDL
MODEL 3
REMARK VINA RESULT:      -5.9     22.738     24.876
REMARK  Name = 
REMARK  14 active torsions:
REMARK  status: ('A' for Active; 'I' for Inactive)
REMARK    1  A    between atoms: O_1  and  C_14
REMARK    2  A    between atoms: O_1  and  C_15
REMARK    3  A    between atoms: O_4  and  C_16
REMARK    4  A    between atoms: O_5  and  C_18
REMARK    5  A    between atoms: O_6  and  C_26
REMARK    6  A    between atoms: O_7  and  C_29
REMARK    7  A    between atoms: O_8  and  C_35
REMARK    8  A    between atoms: O_9  and  C_36
REMARK    9  A    between atoms: O_10  and  C_39
REMARK   10  A    between atoms: O_11  and  C_40
REMARK   11  A    between atoms: O_12  and  C_41
REMARK   12  A    between atoms: O_13  and  C_43
REMARK   13  A    between atoms: C_14  and  C_20
REMARK   14  A    between atoms: C_17  and  C_24
REMARK                            x       y       z     vdW  Elec       q    Type
REMARK                         _______ _______ _______ _____ _____    ______ ____
ROOT
ATOM      1  O   UNL     1     -61.069 -45.993 -78.567  0.00  0.00    +0.000 OA
ATOM      2  C   UNL     1     -60.525 -46.858 -79.574  0.00  0.00    +0.000 C 
ATOM      3  C   UNL     1     -60.978 -46.415 -80.998  0.00  0.00    +0.000 C 
ATOM      4  C   UNL     1     -62.500 -46.346 -81.077  0.00  0.00    +0.000 C 
ATOM      5  C   UNL     1     -63.073 -45.600 -79.909  0.00  0.00    +0.000 A 
ATOM      6  C   UNL     1     -62.326 -45.484 -78.733  0.00  0.00    +0.000 A 
ATOM      7  C   UNL     1     -64.360 -45.043 -79.935  0.00  0.00    +0.000 A 
ATOM      8  C   UNL     1     -62.848 -44.814 -77.624  0.00  0.00    +0.000 A 
ATOM      9  C   UNL     1     -64.896 -44.391 -78.828  0.00  0.00    +0.000 A 
ATOM     10  C   UNL     1     -64.129 -44.278 -77.678  0.00  0.00    +0.000 A 
ENDROOT
BRANCH   2  11
ATOM     11  C   UNL     1     -60.848 -48.344 -79.329  0.00  0.00    +0.000 A 
ATOM     12  C   UNL     1     -61.372 -48.771 -78.088  0.00  0.00    +0.000 A 
ATOM     13  C   UNL     1     -60.647 -49.315 -80.333  0.00  0.00    +0.000 A 
ATOM     14  C   UNL     1     -61.664 -50.115 -77.874  0.00  0.00    +0.000 A 
ATOM     15  C   UNL     1     -60.930 -50.665 -80.103  0.00  0.00    +0.000 A 
ATOM     16  C   UNL     1     -61.430 -51.052 -78.874  0.00  0.00    +0.000 A 
BRANCH  14  17
ATOM     17  O   UNL     1     -62.191 -50.573 -76.700  0.00  0.00    +0.000 OA
ATOM     18  H   UNL     1     -61.470 -50.896 -76.122  0.00  0.00    +0.000 HD
ENDBRANCH  14  17
BRANCH  16  19
ATOM     19  O   UNL     1     -61.711 -52.370 -78.650  0.00  0.00    +0.000 OA
ATOM     20  H   UNL     1     -60.865 -52.748 -78.335  0.00  0.00    +0.000 HD
ENDBRANCH  16  19
ENDBRANCH   2  11
BRANCH   3  21
ATOM     21  O   UNL     1     -60.440 -45.112 -81.363  0.00  0.00    +0.000 OA
ATOM     22  H   UNL     1     -60.420 -44.606 -80.525  0.00  0.00    +0.000 HD
ENDBRANCH   3  21
BRANCH   4  23
ATOM     23  O   UNL     1     -62.887 -45.691 -82.298  0.00  0.00    +0.000 OA
ATOM     24  H   UNL     1     -63.370 -44.889 -81.996  0.00  0.00    +0.000 HD
ENDBRANCH   4  23
BRANCH   7  25
ATOM     25  O   UNL     1     -65.143 -45.097 -81.057  0.00  0.00    +0.000 OA
ATOM     26  H   UNL     1     -65.165 -44.191 -81.438  0.00  0.00    +0.000 HD
ENDBRANCH   7  25
BRANCH  10  27
ATOM     27  O   UNL     1     -64.602 -43.642 -76.567  0.00  0.00    +0.000 OA
ATOM     28  H   UNL     1     -65.140 -44.272 -76.059  0.00  0.00    +0.000 HD
ENDBRANCH  10  27
BRANCH   2  29
ATOM     29  O   UNL     1     -59.083 -46.660 -79.611  0.00  0.00    +0.000 OA
BRANCH  29  31
ATOM     30  O   UNL     1     -56.412 -46.535 -77.046  0.00  0.00    +0.000 OA
ATOM     31  C   UNL     1     -58.453 -46.194 -78.402  0.00  0.00    +0.000 C 
ATOM     32  C   UNL     1     -57.075 -46.888 -78.268  0.00  0.00    +0.000 C 
ATOM     33  C   UNL     1     -58.205 -44.682 -78.438  0.00  0.00    +0.000 C 
ATOM     34  C   UNL     1     -57.149 -44.250 -77.459  0.00  0.00    +0.000 A 
ATOM     35  C   UNL     1     -56.327 -45.188 -76.826  0.00  0.00    +0.000 A 
ATOM     36  C   UNL     1     -56.962 -42.894 -77.165  0.00  0.00    +0.000 A 
ATOM     37  C   UNL     1     -55.373 -44.786 -75.888  0.00  0.00    +0.000 A 
ATOM     38  C   UNL     1     -56.003 -42.479 -76.244  0.00  0.00    +0.000 A 
ATOM     39  C   UNL     1     -55.219 -43.433 -75.608  0.00  0.00    +0.000 A 
BRANCH  32  40
ATOM     40  C   UNL     1     -57.219 -48.404 -78.289  0.00  0.00    +0.000 A 
ATOM     41  C   UNL     1     -57.809 -49.088 -77.214  0.00  0.00    +0.000 A 
ATOM     42  C   UNL     1     -56.836 -49.130 -79.431  0.00  0.00    +0.000 A 
ATOM     43  C   UNL     1     -58.048 -50.458 -77.309  0.00  0.00    +0.000 A 
ATOM     44  C   UNL     1     -57.061 -50.506 -79.512  0.00  0.00    +0.000 A 
ATOM     45  C   UNL     1     -57.682 -51.162 -78.454  0.00  0.00    +0.000 A 
BRANCH  43  46
ATOM     46  O   UNL     1     -58.707 -51.111 -76.307  0.00  0.00    +0.000 OA
ATOM     47  H   UNL     1     -58.069 -51.365 -75.620  0.00  0.00    +0.000 HD
ENDBRANCH  43  46
BRANCH  45  48
ATOM     48  O   UNL     1     -57.969 -52.495 -78.538  0.00  0.00    +0.000 OA
ATOM     49  H   UNL     1     -57.659 -52.833 -79.394  0.00  0.00    +0.000 HD
ENDBRANCH  45  48
ENDBRANCH  32  40
BRANCH  36  50
ATOM     50  O   UNL     1     -57.746 -41.973 -77.802  0.00  0.00    +0.000 OA
ATOM     51  H   UNL     1     -57.286 -41.117 -77.807  0.00  0.00    +0.000 HD
ENDBRANCH  36  50
BRANCH  39  52
ATOM     52  O   UNL     1     -54.294 -42.995 -74.705  0.00  0.00    +0.000 OA
ATOM     53  H   UNL     1     -53.581 -42.539 -75.185  0.00  0.00    +0.000 HD
ENDBRANCH  39  52
ENDBRANCH  29  31
ENDBRANCH   2  29
TORSDOF 14
ENDMDL
MODEL 4
REMARK VINA RESULT:      -5.9     33.163     38.258
REMARK  Name = 
REMARK  14 active torsions:
REMARK  status: ('A' for Active; 'I' for Inactive)
REMARK    1  A    between atoms: O_1  and  C_14
REMARK    2  A    between atoms: O_1  and  C_15
REMARK    3  A    between atoms: O_4  and  C_16
REMARK    4  A    between atoms: O_5  and  C_18
REMARK    5  A    between atoms: O_6  and  C_26
REMARK    6  A    between atoms: O_7  and  C_29
REMARK    7  A    between atoms: O_8  and  C_35
REMARK    8  A    between atoms: O_9  and  C_36
REMARK    9  A    between atoms: O_10  and  C_39
REMARK   10  A    between atoms: O_11  and  C_40
REMARK   11  A    between atoms: O_12  and  C_41
REMARK   12  A    between atoms: O_13  and  C_43
REMARK   13  A    between atoms: C_14  and  C_20
REMARK   14  A    between atoms: C_17  and  C_24
REMARK                            x       y       z     vdW  Elec       q    Type
REMARK                         _______ _______ _______ _____ _____    ______ ____
ROOT
ATOM      1  O   UNL     1     -62.171 -56.015 -17.039  0.00  0.00    +0.000 OA
ATOM      2  C   UNL     1     -61.967 -54.668 -16.592  0.00  0.00    +0.000 C 
ATOM      3  C   UNL     1     -60.792 -54.587 -15.570  0.00  0.00    +0.000 C 
ATOM      4  C   UNL     1     -61.033 -55.538 -14.402  0.00  0.00    +0.000 C 
ATOM      5  C   UNL     1     -61.435 -56.900 -14.883  0.00  0.00    +0.000 A 
ATOM      6  C   UNL     1     -61.986 -57.045 -16.159  0.00  0.00    +0.000 A 
ATOM      7  C   UNL     1     -61.319 -58.043 -14.078  0.00  0.00    +0.000 A 
ATOM      8  C   UNL     1     -62.390 -58.301 -16.620  0.00  0.00    +0.000 A 
ATOM      9  C   UNL     1     -61.737 -59.295 -14.520  0.00  0.00    +0.000 A 
ATOM     10  C   UNL     1     -62.268 -59.413 -15.796  0.00  0.00    +0.000 A 
ENDROOT
BRANCH   2  11
ATOM     11  C   UNL     1     -63.244 -54.026 -16.015  0.00  0.00    +0.000 A 
ATOM     12  C   UNL     1     -63.208 -52.730 -15.454  0.00  0.00    +0.000 A 
ATOM     13  C   UNL     1     -64.483 -54.702 -16.044  0.00  0.00    +0.000 A 
ATOM     14  C   UNL     1     -64.365 -52.156 -14.938  0.00  0.00    +0.000 A 
ATOM     15  C   UNL     1     -65.637 -54.122 -15.510  0.00  0.00    +0.000 A 
ATOM     16  C   UNL     1     -65.566 -52.857 -14.956  0.00  0.00    +0.000 A 
BRANCH  14  17
ATOM     17  O   UNL     1     -64.385 -50.898 -14.404  0.00  0.00    +0.000 OA
ATOM     18  H   UNL     1     -63.537 -50.449 -14.596  0.00  0.00    +0.000 HD
ENDBRANCH  14  17
BRANCH  16  19
ATOM     19  O   UNL     1     -66.694 -52.288 -14.438  0.00  0.00    +0.000 OA
ATOM     20  H   UNL     1     -67.017 -52.942 -13.784  0.00  0.00    +0.000 HD
ENDBRANCH  16  19
ENDBRANCH   2  11
BRANCH   3  21
ATOM     21  O   UNL     1     -59.514 -54.925 -16.181  0.00  0.00    +0.000 OA
ATOM     22  H   UNL     1     -59.121 -55.595 -15.585  0.00  0.00    +0.000 HD
ENDBRANCH   3  21
BRANCH   4  23
ATOM     23  O   UNL     1     -59.833 -55.645 -13.616  0.00  0.00    +0.000 OA
ATOM     24  H   UNL     1     -60.158 -55.859 -12.713  0.00  0.00    +0.000 HD
ENDBRANCH   4  23
BRANCH   7  25
ATOM     25  O   UNL     1     -60.770 -57.985 -12.824  0.00  0.00    +0.000 OA
ATOM     26  H   UNL     1     -60.921 -57.075 -12.485  0.00  0.00    +0.000 HD
ENDBRANCH   7  25
BRANCH  10  27
ATOM     27  O   UNL     1     -62.685 -60.617 -16.284  0.00  0.00    +0.000 OA
ATOM     28  H   UNL     1     -63.318 -60.454 -17.003  0.00  0.00    +0.000 HD
ENDBRANCH  10  27
BRANCH   2  29
ATOM     29  O   UNL     1     -61.479 -53.885 -17.717  0.00  0.00    +0.000 OA
BRANCH  29  31
ATOM     30  O   UNL     1     -62.669 -53.660 -21.219  0.00  0.00    +0.000 OA
ATOM     31  C   UNL     1     -61.758 -54.390 -19.038  0.00  0.00    +0.000 C 
ATOM     32  C   UNL     1     -62.293 -53.224 -19.906  0.00  0.00    +0.000 C 
ATOM     33  C   UNL     1     -60.496 -54.929 -19.718  0.00  0.00    +0.000 C 
ATOM     34  C   UNL     1     -60.636 -55.002 -21.213  0.00  0.00    +0.000 A 
ATOM     35  C   UNL     1     -61.700 -54.376 -21.869  0.00  0.00    +0.000 A 
ATOM     36  C   UNL     1     -59.695 -55.697 -21.983  0.00  0.00    +0.000 A 
ATOM     37  C   UNL     1     -61.848 -54.479 -23.254  0.00  0.00    +0.000 A 
ATOM     38  C   UNL     1     -59.823 -55.794 -23.367  0.00  0.00    +0.000 A 
ATOM     39  C   UNL     1     -60.905 -55.187 -23.990  0.00  0.00    +0.000 A 
BRANCH  32  40
ATOM     40  C   UNL     1     -63.518 -52.581 -19.269  0.00  0.00    +0.000 A 
ATOM     41  C   UNL     1     -63.455 -51.290 -18.722  0.00  0.00    +0.000 A 
ATOM     42  C   UNL     1     -64.756 -53.249 -19.299  0.00  0.00    +0.000 A 
ATOM     43  C   UNL     1     -64.616 -50.672 -18.262  0.00  0.00    +0.000 A 
ATOM     44  C   UNL     1     -65.913 -52.631 -18.818  0.00  0.00    +0.000 A 
ATOM     45  C   UNL     1     -65.840 -51.336 -18.316  0.00  0.00    +0.000 A 
BRANCH  43  46
ATOM     46  O   UNL     1     -64.577 -49.382 -17.817  0.00  0.00    +0.000 OA
ATOM     47  H   UNL     1     -64.229 -48.812 -18.523  0.00  0.00    +0.000 HD
ENDBRANCH  43  46
BRANCH  45  48
ATOM     48  O   UNL     1     -66.968 -50.690 -17.900  0.00  0.00    +0.000 OA
ATOM     49  H   UNL     1     -67.746 -51.203 -18.172  0.00  0.00    +0.000 HD
ENDBRANCH  45  48
ENDBRANCH  32  40
BRANCH  36  50
ATOM     50  O   UNL     1     -58.640 -56.290 -21.348  0.00  0.00    +0.000 OA
ATOM     51  H   UNL     1     -58.303 -57.013 -21.904  0.00  0.00    +0.000 HD
ENDBRANCH  36  50
BRANCH  39  52
ATOM     52  O   UNL     1     -61.006 -55.306 -25.346  0.00  0.00    +0.000 OA
ATOM     53  H   UNL     1     -60.169 -55.017 -25.747  0.00  0.00    +0.000 HD
ENDBRANCH  39  52
ENDBRANCH  29  31
ENDBRANCH   2  29
TORSDOF 14
ENDMDL
MODEL 5
REMARK VINA RESULT:      -5.9     21.266     25.712
REMARK  Name = 
REMARK  14 active torsions:
REMARK  status: ('A' for Active; 'I' for Inactive)
REMARK    1  A    between atoms: O_1  and  C_14
REMARK    2  A    between atoms: O_1  and  C_15
REMARK    3  A    between atoms: O_4  and  C_16
REMARK    4  A    between atoms: O_5  and  C_18
REMARK    5  A    between atoms: O_6  and  C_26
REMARK    6  A    between atoms: O_7  and  C_29
REMARK    7  A    between atoms: O_8  and  C_35
REMARK    8  A    between atoms: O_9  and  C_36
REMARK    9  A    between atoms: O_10  and  C_39
REMARK   10  A    between atoms: O_11  and  C_40
REMARK   11  A    between atoms: O_12  and  C_41
REMARK   12  A    between atoms: O_13  and  C_43
REMARK   13  A    between atoms: C_14  and  C_20
REMARK   14  A    between atoms: C_17  and  C_24
REMARK                            x       y       z     vdW  Elec       q    Type
REMARK                         _______ _______ _______ _____ _____    ______ ____
ROOT
ATOM      1  O   UNL     1     -66.557 -60.635 -74.805  0.00  0.00    +0.000 OA
ATOM      2  C   UNL     1     -66.508 -61.406 -76.014  0.00  0.00    +0.000 C 
ATOM      3  C   UNL     1     -66.821 -62.908 -75.734  0.00  0.00    +0.000 C 
ATOM      4  C   UNL     1     -65.875 -63.462 -74.674  0.00  0.00    +0.000 C 
ATOM      5  C   UNL     1     -65.786 -62.546 -73.490  0.00  0.00    +0.000 A 
ATOM      6  C   UNL     1     -66.121 -61.197 -73.638  0.00  0.00    +0.000 A 
ATOM      7  C   UNL     1     -65.336 -62.984 -72.236  0.00  0.00    +0.000 A 
ATOM      8  C   UNL     1     -66.024 -60.319 -72.555  0.00  0.00    +0.000 A 
ATOM      9  C   UNL     1     -65.216 -62.112 -71.157  0.00  0.00    +0.000 A 
ATOM     10  C   UNL     1     -65.568 -60.781 -71.326  0.00  0.00    +0.000 A 
ENDROOT
BRANCH   2  11
ATOM     11  C   UNL     1     -65.175 -61.251 -76.772  0.00  0.00    +0.000 A 
ATOM     12  C   UNL     1     -64.859 -62.104 -77.853  0.00  0.00    +0.000 A 
ATOM     13  C   UNL     1     -64.244 -60.251 -76.422  0.00  0.00    +0.000 A 
ATOM     14  C   UNL     1     -63.655 -61.957 -78.534  0.00  0.00    +0.000 A 
ATOM     15  C   UNL     1     -63.030 -60.120 -77.104  0.00  0.00    +0.000 A 
ATOM     16  C   UNL     1     -62.745 -60.979 -78.149  0.00  0.00    +0.000 A 
BRANCH  14  17
ATOM     17  O   UNL     1     -63.314 -62.743 -79.598  0.00  0.00    +0.000 OA
ATOM     18  H   UNL     1     -62.348 -62.898 -79.594  0.00  0.00    +0.000 HD
ENDBRANCH  14  17
BRANCH  16  19
ATOM     19  O   UNL     1     -61.562 -60.849 -78.818  0.00  0.00    +0.000 OA
ATOM     20  H   UNL     1     -61.824 -60.659 -79.742  0.00  0.00    +0.000 HD
ENDBRANCH  16  19
ENDBRANCH   2  11
BRANCH   3  21
ATOM     21  O   UNL     1     -68.189 -63.105 -75.278  0.00  0.00    +0.000 OA
ATOM     22  H   UNL     1     -68.106 -63.331 -74.329  0.00  0.00    +0.000 HD
ENDBRANCH   3  21
BRANCH   4  23
ATOM     23  O   UNL     1     -66.341 -64.753 -74.244  0.00  0.00    +0.000 OA
ATOM     24  H   UNL     1     -67.263 -64.587 -73.944  0.00  0.00    +0.000 HD
ENDBRANCH   4  23
BRANCH   7  25
ATOM     25  O   UNL     1     -65.010 -64.294 -72.008  0.00  0.00    +0.000 OA
ATOM     26  H   UNL     1     -65.494 -64.832 -72.673  0.00  0.00    +0.000 HD
ENDBRANCH   7  25
BRANCH  10  27
ATOM     27  O   UNL     1     -65.479 -59.886 -70.301  0.00  0.00    +0.000 OA
ATOM     28  H   UNL     1     -66.226 -60.035 -69.698  0.00  0.00    +0.000 HD
ENDBRANCH  10  27
BRANCH   2  29
ATOM     29  O   UNL     1     -67.616 -60.991 -76.862  0.00  0.00    +0.000 OA
BRANCH  29  31
ATOM     30  O   UNL     1     -68.937 -57.700 -77.933  0.00  0.00    +0.000 OA
ATOM     31  C   UNL     1     -68.136 -59.663 -76.658  0.00  0.00    +0.000 C 
ATOM     32  C   UNL     1     -68.483 -59.056 -78.041  0.00  0.00    +0.000 C 
ATOM     33  C   UNL     1     -69.423 -59.679 -75.827  0.00  0.00    +0.000 C 
ATOM     34  C   UNL     1     -70.236 -58.426 -76.004  0.00  0.00    +0.000 A 
ATOM     35  C   UNL     1     -69.949 -57.520 -77.030  0.00  0.00    +0.000 A 
ATOM     36  C   UNL     1     -71.306 -58.144 -75.146  0.00  0.00    +0.000 A 
ATOM     37  C   UNL     1     -70.682 -56.339 -77.167  0.00  0.00    +0.000 A 
ATOM     38  C   UNL     1     -72.055 -56.978 -75.282  0.00  0.00    +0.000 A 
ATOM     39  C   UNL     1     -71.730 -56.080 -76.292  0.00  0.00    +0.000 A 
BRANCH  32  40
ATOM     40  C   UNL     1     -67.270 -59.060 -78.962  0.00  0.00    +0.000 A 
ATOM     41  C   UNL     1     -66.199 -58.178 -78.750  0.00  0.00    +0.000 A 
ATOM     42  C   UNL     1     -67.175 -60.012 -79.993  0.00  0.00    +0.000 A 
ATOM     43  C   UNL     1     -65.045 -58.286 -79.524  0.00  0.00    +0.000 A 
ATOM     44  C   UNL     1     -66.023 -60.102 -80.779  0.00  0.00    +0.000 A 
ATOM     45  C   UNL     1     -64.955 -59.247 -80.529  0.00  0.00    +0.000 A 
BRANCH  43  46
ATOM     46  O   UNL     1     -63.964 -57.494 -79.260  0.00  0.00    +0.000 OA
ATOM     47  H   UNL     1     -64.272 -56.607 -79.013  0.00  0.00    +0.000 HD
ENDBRANCH  43  46
BRANCH  45  48
ATOM     48  O   UNL     1     -63.796 -59.359 -81.242  0.00  0.00    +0.000 OA
ATOM     49  H   UNL     1     -63.114 -59.759 -80.678  0.00  0.00    +0.000 HD
ENDBRANCH  45  48
ENDBRANCH  32  40
BRANCH  36  50
ATOM     50  O   UNL     1     -71.604 -59.040 -74.158  0.00  0.00    +0.000 OA
ATOM     51  H   UNL     1     -70.917 -59.727 -74.137  0.00  0.00    +0.000 HD
ENDBRANCH  36  50
BRANCH  39  52
ATOM     52  O   UNL     1     -72.478 -54.943 -76.394  0.00  0.00    +0.000 OA
ATOM     53  H   UNL     1     -71.976 -54.204 -76.011  0.00  0.00    +0.000 HD
ENDBRANCH  39  52
ENDBRANCH  29  31
ENDBRANCH   2  29
TORSDOF 14
ENDMDL
MODEL 6
REMARK VINA RESULT:      -5.8      2.564      5.878
REMARK  Name = 
REMARK  14 active torsions:
REMARK  status: ('A' for Active; 'I' for Inactive)
REMARK    1  A    between atoms: O_1  and  C_14
REMARK    2  A    between atoms: O_1  and  C_15
REMARK    3  A    between atoms: O_4  and  C_16
REMARK    4  A    between atoms: O_5  and  C_18
REMARK    5  A    between atoms: O_6  and  C_26
REMARK    6  A    between atoms: O_7  and  C_29
REMARK    7  A    between atoms: O_8  and  C_35
REMARK    8  A    between atoms: O_9  and  C_36
REMARK    9  A    between atoms: O_10  and  C_39
REMARK   10  A    between atoms: O_11  and  C_40
REMARK   11  A    between atoms: O_12  and  C_41
REMARK   12  A    between atoms: O_13  and  C_43
REMARK   13  A    between atoms: C_14  and  C_20
REMARK   14  A    between atoms: C_17  and  C_24
REMARK                            x       y       z     vdW  Elec       q    Type
REMARK                         _______ _______ _______ _____ _____    ______ ____
ROOT
ATOM      1  O   UNL     1     -64.644 -46.285 -57.822  0.00  0.00    +0.000 OA
ATOM      2  C   UNL     1     -65.114 -45.666 -56.617  0.00  0.00    +0.000 C 
ATOM      3  C   UNL     1     -64.585 -44.205 -56.493  0.00  0.00    +0.000 C 
ATOM      4  C   UNL     1     -63.063 -44.178 -56.583  0.00  0.00    +0.000 C 
ATOM      5  C   UNL     1     -62.571 -44.992 -57.742  0.00  0.00    +0.000 A 
ATOM      6  C   UNL     1     -63.387 -45.995 -58.275  0.00  0.00    +0.000 A 
ATOM      7  C   UNL     1     -61.294 -44.814 -58.295  0.00  0.00    +0.000 A 
ATOM      8  C   UNL     1     -62.941 -46.782 -59.340  0.00  0.00    +0.000 A 
ATOM      9  C   UNL     1     -60.833 -45.606 -59.342  0.00  0.00    +0.000 A 
ATOM     10  C   UNL     1     -61.668 -46.585 -59.861  0.00  0.00    +0.000 A 
ENDROOT
BRANCH   2  11
ATOM     11  C   UNL     1     -64.782 -46.483 -55.353  0.00  0.00    +0.000 A 
ATOM     12  C   UNL     1     -64.368 -47.830 -55.455  0.00  0.00    +0.000 A 
ATOM     13  C   UNL     1     -64.864 -45.910 -54.066  0.00  0.00    +0.000 A 
ATOM     14  C   UNL     1     -64.067 -48.560 -54.310  0.00  0.00    +0.000 A 
ATOM     15  C   UNL     1     -64.574 -46.657 -52.921  0.00  0.00    +0.000 A 
ATOM     16  C   UNL     1     -64.184 -47.977 -53.053  0.00  0.00    +0.000 A 
BRANCH  14  17
ATOM     17  O   UNL     1     -63.643 -49.859 -54.359  0.00  0.00    +0.000 OA
ATOM     18  H   UNL     1     -64.269 -50.387 -54.895  0.00  0.00    +0.000 HD
ENDBRANCH  14  17
BRANCH  16  19
ATOM     19  O   UNL     1     -63.896 -48.706 -51.935  0.00  0.00    +0.000 OA
ATOM     20  H   UNL     1     -64.461 -48.315 -51.238  0.00  0.00    +0.000 HD
ENDBRANCH  16  19
ENDBRANCH   2  11
BRANCH   3  21
ATOM     21  O   UNL     1     -65.122 -43.339 -57.534  0.00  0.00    +0.000 OA
ATOM     22  H   UNL     1     -64.343 -42.872 -57.898  0.00  0.00    +0.000 HD
ENDBRANCH   3  21
BRANCH   4  23
ATOM     23  O   UNL     1     -62.615 -42.819 -56.731  0.00  0.00    +0.000 OA
ATOM     24  H   UNL     1     -63.443 -42.310 -56.882  0.00  0.00    +0.000 HD
ENDBRANCH   4  23
BRANCH   7  25
ATOM     25  O   UNL     1     -60.446 -43.839 -57.841  0.00  0.00    +0.000 OA
ATOM     26  H   UNL     1     -60.414 -43.916 -56.862  0.00  0.00    +0.000 HD
ENDBRANCH   7  25
BRANCH  10  27
ATOM     27  O   UNL     1     -61.271 -47.384 -60.893  0.00  0.00    +0.000 OA
ATOM     28  H   UNL     1     -61.225 -48.301 -60.572  0.00  0.00    +0.000 HD
ENDBRANCH  10  27
BRANCH   2  29
ATOM     29  O   UNL     1     -66.554 -45.486 -56.731  0.00  0.00    +0.000 OA
BRANCH  29  31
ATOM     30  O   UNL     1     -69.256 -47.600 -58.131  0.00  0.00    +0.000 OA
ATOM     31  C   UNL     1     -67.228 -46.231 -57.764  0.00  0.00    +0.000 C 
ATOM     32  C   UNL     1     -68.557 -46.779 -57.185  0.00  0.00    +0.000 C 
ATOM     33  C   UNL     1     -67.580 -45.346 -58.964  0.00  0.00    +0.000 C 
ATOM     34  C   UNL     1     -68.674 -45.935 -59.810  0.00  0.00    +0.000 A 
ATOM     35  C   UNL     1     -69.437 -47.014 -59.354  0.00  0.00    +0.000 A 
ATOM     36  C   UNL     1     -68.958 -45.406 -61.076  0.00  0.00    +0.000 A 
ATOM     37  C   UNL     1     -70.427 -47.583 -60.159  0.00  0.00    +0.000 A 
ATOM     38  C   UNL     1     -69.954 -45.954 -61.882  0.00  0.00    +0.000 A 
ATOM     39  C   UNL     1     -70.677 -47.044 -61.415  0.00  0.00    +0.000 A 
BRANCH  32  40
ATOM     40  C   UNL     1     -68.308 -47.623 -55.942  0.00  0.00    +0.000 A 
ATOM     41  C   UNL     1     -67.721 -48.895 -56.038  0.00  0.00    +0.000 A 
ATOM     42  C   UNL     1     -68.590 -47.097 -54.669  0.00  0.00    +0.000 A 
ATOM     43  C   UNL     1     -67.385 -49.594 -54.882  0.00  0.00    +0.000 A 
ATOM     44  C   UNL     1     -68.267 -47.812 -53.513  0.00  0.00    +0.000 A 
ATOM     45  C   UNL     1     -67.650 -49.054 -53.625  0.00  0.00    +0.000 A 
BRANCH  43  46
ATOM     46  O   UNL     1     -66.727 -50.789 -54.968  0.00  0.00    +0.000 OA
ATOM     47  H   UNL     1     -67.378 -51.511 -54.964  0.00  0.00    +0.000 HD
ENDBRANCH  43  46
BRANCH  45  48
ATOM     48  O   UNL     1     -67.269 -49.741 -52.509  0.00  0.00    +0.000 OA
ATOM     49  H   UNL     1     -67.363 -49.165 -51.733  0.00  0.00    +0.000 HD
ENDBRANCH  45  48
ENDBRANCH  32  40
BRANCH  36  50
ATOM     50  O   UNL     1     -68.231 -44.335 -61.515  0.00  0.00    +0.000 OA
ATOM     51  H   UNL     1     -67.728 -44.598 -62.305  0.00  0.00    +0.000 HD
ENDBRANCH  36  50
BRANCH  39  52
ATOM     52  O   UNL     1     -71.640 -47.563 -62.231  0.00  0.00    +0.000 OA
ATOM     53  H   UNL     1     -72.163 -48.208 -61.726  0.00  0.00    +0.000 HD
ENDBRANCH  39  52
ENDBRANCH  29  31
ENDBRANCH   2  29
TORSDOF 14
ENDMDL
MODEL 7
REMARK VINA RESULT:      -5.8     33.645     38.789
REMARK  Name = 
REMARK  14 active torsions:
REMARK  status: ('A' for Active; 'I' for Inactive)
REMARK    1  A    between atoms: O_1  and  C_14
REMARK    2  A    between atoms: O_1  and  C_15
REMARK    3  A    between atoms: O_4  and  C_16
REMARK    4  A    between atoms: O_5  and  C_18
REMARK    5  A    between atoms: O_6  and  C_26
REMARK    6  A    between atoms: O_7  and  C_29
REMARK    7  A    between atoms: O_8  and  C_35
REMARK    8  A    between atoms: O_9  and  C_36
REMARK    9  A    between atoms: O_10  and  C_39
REMARK   10  A    between atoms: O_11  and  C_40
REMARK   11  A    between atoms: O_12  and  C_41
REMARK   12  A    between atoms: O_13  and  C_43
REMARK   13  A    between atoms: C_14  and  C_20
REMARK   14  A    between atoms: C_17  and  C_24
REMARK                            x       y       z     vdW  Elec       q    Type
REMARK                         _______ _______ _______ _____ _____    ______ ____
ROOT
ATOM      1  O   UNL     1     -63.478 -55.066 -16.198  0.00  0.00    +0.000 OA
ATOM      2  C   UNL     1     -62.948 -53.790 -15.813  0.00  0.00    +0.000 C 
ATOM      3  C   UNL     1     -61.875 -53.943 -14.693  0.00  0.00    +0.000 C 
ATOM      4  C   UNL     1     -62.452 -54.697 -13.499  0.00  0.00    +0.000 C 
ATOM      5  C   UNL     1     -63.174 -55.936 -13.935  0.00  0.00    +0.000 A 
ATOM      6  C   UNL     1     -63.647 -56.033 -15.247  0.00  0.00    +0.000 A 
ATOM      7  C   UNL     1     -63.433 -56.999 -13.057  0.00  0.00    +0.000 A 
ATOM      8  C   UNL     1     -64.342 -57.168 -15.669  0.00  0.00    +0.000 A 
ATOM      9  C   UNL     1     -64.143 -58.126 -13.463  0.00  0.00    +0.000 A 
ATOM     10  C   UNL     1     -64.590 -58.202 -14.774  0.00  0.00    +0.000 A 
ENDROOT
BRANCH   2  11
ATOM     11  C   UNL     1     -64.041 -52.786 -15.398  0.00  0.00    +0.000 A 
ATOM     12  C   UNL     1     -63.713 -51.442 -15.112  0.00  0.00    +0.000 A 
ATOM     13  C   UNL     1     -65.395 -53.172 -15.305  0.00  0.00    +0.000 A 
ATOM     14  C   UNL     1     -64.705 -50.541 -14.739  0.00  0.00    +0.000 A 
ATOM     15  C   UNL     1     -66.383 -52.262 -14.916  0.00  0.00    +0.000 A 
ATOM     16  C   UNL     1     -66.027 -50.957 -14.630  0.00  0.00    +0.000 A 
BRANCH  14  17
ATOM     17  O   UNL     1     -64.439 -49.227 -14.474  0.00  0.00    +0.000 OA
ATOM     18  H   UNL     1     -64.420 -48.721 -15.311  0.00  0.00    +0.000 HD
ENDBRANCH  14  17
BRANCH  16  19
ATOM     19  O   UNL     1     -66.991 -50.066 -14.255  0.00  0.00    +0.000 OA
ATOM     20  H   UNL     1     -67.235 -49.608 -15.084  0.00  0.00    +0.000 HD
ENDBRANCH  16  19
ENDBRANCH   2  11
BRANCH   3  21
ATOM     21  O   UNL     1     -60.695 -54.657 -15.160  0.00  0.00    +0.000 OA
ATOM     22  H   UNL     1     -60.695 -55.497 -14.658  0.00  0.00    +0.000 HD
ENDBRANCH   3  21
BRANCH   4  23
ATOM     23  O   UNL     1     -61.389 -55.055 -12.599  0.00  0.00    +0.000 OA
ATOM     24  H   UNL     1     -60.590 -54.641 -12.996  0.00  0.00    +0.000 HD
ENDBRANCH   4  23
BRANCH   7  25
ATOM     25  O   UNL     1     -62.984 -56.988 -11.764  0.00  0.00    +0.000 OA
ATOM     26  H   UNL     1     -63.162 -56.091 -11.404  0.00  0.00    +0.000 HD
ENDBRANCH   7  25
BRANCH  10  27
ATOM     27  O   UNL     1     -65.282 -59.287 -15.228  0.00  0.00    +0.000 OA
ATOM     28  H   UNL     1     -65.625 -59.775 -14.460  0.00  0.00    +0.000 HD
ENDBRANCH  10  27
BRANCH   2  29
ATOM     29  O   UNL     1     -62.183 -53.260 -16.932  0.00  0.00    +0.000 OA
BRANCH  29  31
ATOM     30  O   UNL     1     -62.923 -53.651 -20.542  0.00  0.00    +0.000 OA
ATOM     31  C   UNL     1     -62.263 -53.977 -18.180  0.00  0.00    +0.000 C 
ATOM     32  C   UNL     1     -62.743 -52.996 -19.279  0.00  0.00    +0.000 C 
ATOM     33  C   UNL     1     -60.896 -54.519 -18.611  0.00  0.00    +0.000 C 
ATOM     34  C   UNL     1     -60.839 -54.827 -20.082  0.00  0.00    +0.000 A 
ATOM     35  C   UNL     1     -61.842 -54.384 -20.950  0.00  0.00    +0.000 A 
ATOM     36  C   UNL     1     -59.772 -55.560 -20.615  0.00  0.00    +0.000 A 
ATOM     37  C   UNL     1     -61.805 -54.705 -22.309  0.00  0.00    +0.000 A 
ATOM     38  C   UNL     1     -59.715 -55.872 -21.972  0.00  0.00    +0.000 A 
ATOM     39  C   UNL     1     -60.739 -55.445 -22.807  0.00  0.00    +0.000 A 
BRANCH  32  40
ATOM     40  C   UNL     1     -64.072 -52.356 -18.902  0.00  0.00    +0.000 A 
ATOM     41  C   UNL     1     -64.154 -50.988 -18.597  0.00  0.00    +0.000 A 
ATOM     42  C   UNL     1     -65.253 -53.118 -18.938  0.00  0.00    +0.000 A 
ATOM     43  C   UNL     1     -65.397 -50.397 -18.382  0.00  0.00    +0.000 A 
ATOM     44  C   UNL     1     -66.495 -52.524 -18.702  0.00  0.00    +0.000 A 
ATOM     45  C   UNL     1     -66.562 -51.159 -18.440  0.00  0.00    +0.000 A 
BRANCH  43  46
ATOM     46  O   UNL     1     -65.492 -49.050 -18.179  0.00  0.00    +0.000 OA
ATOM     47  H   UNL     1     -65.092 -48.828 -17.321  0.00  0.00    +0.000 HD
ENDBRANCH  43  46
BRANCH  45  48
ATOM     48  O   UNL     1     -67.770 -50.545 -18.270  0.00  0.00    +0.000 OA
ATOM     49  H   UNL     1     -67.912 -50.381 -17.323  0.00  0.00    +0.000 HD
ENDBRANCH  45  48
ENDBRANCH  32  40
BRANCH  36  50
ATOM     50  O   UNL     1     -58.777 -55.972 -19.773  0.00  0.00    +0.000 OA
ATOM     51  H   UNL     1     -58.768 -56.944 -19.749  0.00  0.00    +0.000 HD
ENDBRANCH  36  50
BRANCH  39  52
ATOM     52  O   UNL     1     -60.659 -55.774 -24.129  0.00  0.00    +0.000 OA
ATOM     53  H   UNL     1     -60.743 -54.963 -24.658  0.00  0.00    +0.000 HD
ENDBRANCH  39  52
ENDBRANCH  29  31
ENDBRANCH   2  29
TORSDOF 14
ENDMDL
MODEL 8
REMARK VINA RESULT:      -5.8     19.213     23.050
REMARK  Name = 
REMARK  14 active torsions:
REMARK  status: ('A' for Active; 'I' for Inactive)
REMARK    1  A    between atoms: O_1  and  C_14
REMARK    2  A    between atoms: O_1  and  C_15
REMARK    3  A    between atoms: O_4  and  C_16
REMARK    4  A    between atoms: O_5  and  C_18
REMARK    5  A    between atoms: O_6  and  C_26
REMARK    6  A    between atoms: O_7  and  C_29
REMARK    7  A    between atoms: O_8  and  C_35
REMARK    8  A    between atoms: O_9  and  C_36
REMARK    9  A    between atoms: O_10  and  C_39
REMARK   10  A    between atoms: O_11  and  C_40
REMARK   11  A    between atoms: O_12  and  C_41
REMARK   12  A    between atoms: O_13  and  C_43
REMARK   13  A    between atoms: C_14  and  C_20
REMARK   14  A    between atoms: C_17  and  C_24
REMARK                            x       y       z     vdW  Elec       q    Type
REMARK                         _______ _______ _______ _____ _____    ______ ____
ROOT
ATOM      1  O   UNL     1     -70.610 -60.182 -38.067  0.00  0.00    +0.000 OA
ATOM      2  C   UNL     1     -69.828 -60.515 -36.912  0.00  0.00    +0.000 C 
ATOM      3  C   UNL     1     -69.323 -61.989 -36.982  0.00  0.00    +0.000 C 
ATOM      4  C   UNL     1     -70.495 -62.947 -37.166  0.00  0.00    +0.000 C 
ATOM      5  C   UNL     1     -71.414 -62.482 -38.255  0.00  0.00    +0.000 A 
ATOM      6  C   UNL     1     -71.418 -61.133 -38.623  0.00  0.00    +0.000 A 
ATOM      7  C   UNL     1     -72.311 -63.347 -38.899  0.00  0.00    +0.000 A 
ATOM      8  C   UNL     1     -72.282 -60.672 -39.619  0.00  0.00    +0.000 A 
ATOM      9  C   UNL     1     -73.190 -62.893 -39.878  0.00  0.00    +0.000 A 
ATOM     10  C   UNL     1     -73.164 -61.552 -40.234  0.00  0.00    +0.000 A 
ENDROOT
BRANCH   2  11
ATOM     11  C   UNL     1     -70.569 -60.249 -35.588  0.00  0.00    +0.000 A 
ATOM     12  C   UNL     1     -70.050 -60.726 -34.363  0.00  0.00    +0.000 A 
ATOM     13  C   UNL     1     -71.773 -59.513 -35.555  0.00  0.00    +0.000 A 
ATOM     14  C   UNL     1     -70.723 -60.479 -33.171  0.00  0.00    +0.000 A 
ATOM     15  C   UNL     1     -72.450 -59.283 -34.354  0.00  0.00    +0.000 A 
ATOM     16  C   UNL     1     -71.921 -59.774 -33.174  0.00  0.00    +0.000 A 
BRANCH  14  17
ATOM     17  O   UNL     1     -70.250 -60.901 -31.961  0.00  0.00    +0.000 OA
ATOM     18  H   UNL     1     -70.139 -60.132 -31.367  0.00  0.00    +0.000 HD
ENDBRANCH  14  17
BRANCH  16  19
ATOM     19  O   UNL     1     -72.580 -59.546 -32.000  0.00  0.00    +0.000 OA
ATOM     20  H   UNL     1     -71.882 -59.238 -31.386  0.00  0.00    +0.000 HD
ENDBRANCH  16  19
ENDBRANCH   2  11
BRANCH   3  21
ATOM     21  O   UNL     1     -68.387 -62.193 -38.079  0.00  0.00    +0.000 OA
ATOM     22  H   UNL     1     -67.691 -62.773 -37.709  0.00  0.00    +0.000 HD
ENDBRANCH   3  21
BRANCH   4  23
ATOM     23  O   UNL     1     -69.997 -64.257 -37.490  0.00  0.00    +0.000 OA
ATOM     24  H   UNL     1     -69.868 -64.687 -36.615  0.00  0.00    +0.000 HD
ENDBRANCH   4  23
BRANCH   7  25
ATOM     25  O   UNL     1     -72.352 -64.684 -38.608  0.00  0.00    +0.000 OA
ATOM     26  H   UNL     1     -71.505 -64.910 -38.164  0.00  0.00    +0.000 HD
ENDBRANCH   7  25
BRANCH  10  27
ATOM     27  O   UNL     1     -73.997 -61.055 -41.194  0.00  0.00    +0.000 OA
ATOM     28  H   UNL     1     -73.892 -61.590 -41.999  0.00  0.00    +0.000 HD
ENDBRANCH  10  27
BRANCH   2  29
ATOM     29  O   UNL     1     -68.596 -59.742 -36.959  0.00  0.00    +0.000 OA
BRANCH  29  31
ATOM     30  O   UNL     1     -67.917 -56.110 -37.236  0.00  0.00    +0.000 OA
ATOM     31  C   UNL     1     -68.658 -58.445 -37.583  0.00  0.00    +0.000 C 
ATOM     32  C   UNL     1     -67.843 -57.448 -36.723  0.00  0.00    +0.000 C 
ATOM     33  C   UNL     1     -68.038 -58.459 -38.984  0.00  0.00    +0.000 C 
ATOM     34  C   UNL     1     -67.647 -57.085 -39.452  0.00  0.00    +0.000 A 
ATOM     35  C   UNL     1     -67.612 -56.004 -38.566  0.00  0.00    +0.000 A 
ATOM     36  C   UNL     1     -67.301 -56.861 -40.791  0.00  0.00    +0.000 A 
ATOM     37  C   UNL     1     -67.286 -54.722 -39.013  0.00  0.00    +0.000 A 
ATOM     38  C   UNL     1     -66.958 -55.589 -41.245  0.00  0.00    +0.000 A 
ATOM     39  C   UNL     1     -66.960 -54.528 -40.350  0.00  0.00    +0.000 A 
BRANCH  32  40
ATOM     40  C   UNL     1     -68.351 -57.416 -35.288  0.00  0.00    +0.000 A 
ATOM     41  C   UNL     1     -67.613 -58.001 -34.247  0.00  0.00    +0.000 A 
ATOM     42  C   UNL     1     -69.534 -56.721 -34.978  0.00  0.00    +0.000 A 
ATOM     43  C   UNL     1     -68.031 -57.848 -32.927  0.00  0.00    +0.000 A 
ATOM     44  C   UNL     1     -69.959 -56.588 -33.654  0.00  0.00    +0.000 A 
ATOM     45  C   UNL     1     -69.194 -57.140 -32.631  0.00  0.00    +0.000 A 
BRANCH  43  46
ATOM     46  O   UNL     1     -67.268 -58.332 -31.903  0.00  0.00    +0.000 OA
ATOM     47  H   UNL     1     -66.843 -57.589 -31.444  0.00  0.00    +0.000 HD
ENDBRANCH  43  46
BRANCH  45  48
ATOM     48  O   UNL     1     -69.556 -56.967 -31.325  0.00  0.00    +0.000 OA
ATOM     49  H   UNL     1     -69.565 -56.018 -31.121  0.00  0.00    +0.000 HD
ENDBRANCH  45  48
ENDBRANCH  32  40
BRANCH  36  50
ATOM     50  O   UNL     1     -67.310 -57.920 -41.654  0.00  0.00    +0.000 OA
ATOM     51  H   UNL     1     -67.444 -57.588 -42.558  0.00  0.00    +0.000 HD
ENDBRANCH  36  50
BRANCH  39  52
ATOM     52  O   UNL     1     -66.627 -53.294 -40.828  0.00  0.00    +0.000 OA
ATOM     53  H   UNL     1     -66.176 -52.797 -40.124  0.00  0.00    +0.000 HD
ENDBRANCH  39  52
ENDBRANCH  29  31
ENDBRANCH   2  29
TORSDOF 14
ENDMDL
MODEL 9
REMARK VINA RESULT:      -5.7     19.410     23.251
REMARK  Name = 
REMARK  14 active torsions:
REMARK  status: ('A' for Active; 'I' for Inactive)
REMARK    1  A    between atoms: O_1  and  C_14
REMARK    2  A    between atoms: O_1  and  C_15
REMARK    3  A    between atoms: O_4  and  C_16
REMARK    4  A    between atoms: O_5  and  C_18
REMARK    5  A    between atoms: O_6  and  C_26
REMARK    6  A    between atoms: O_7  and  C_29
REMARK    7  A    between atoms: O_8  and  C_35
REMARK    8  A    between atoms: O_9  and  C_36
REMARK    9  A    between atoms: O_10  and  C_39
REMARK   10  A    between atoms: O_11  and  C_40
REMARK   11  A    between atoms: O_12  and  C_41
REMARK   12  A    between atoms: O_13  and  C_43
REMARK   13  A    between atoms: C_14  and  C_20
REMARK   14  A    between atoms: C_17  and  C_24
REMARK                            x       y       z     vdW  Elec       q    Type
REMARK                         _______ _______ _______ _____ _____    ______ ____
ROOT
ATOM      1  O   UNL     1     -62.812 -64.476 -70.325  0.00  0.00    +0.000 OA
ATOM      2  C   UNL     1     -64.197 -64.717 -70.609  0.00  0.00    +0.000 C 
ATOM      3  C   UNL     1     -64.428 -66.187 -71.073  0.00  0.00    +0.000 C 
ATOM      4  C   UNL     1     -63.542 -66.515 -72.271  0.00  0.00    +0.000 C 
ATOM      5  C   UNL     1     -62.126 -66.081 -72.036  0.00  0.00    +0.000 A 
ATOM      6  C   UNL     1     -61.858 -65.087 -71.091  0.00  0.00    +0.000 A 
ATOM      7  C   UNL     1     -61.050 -66.610 -72.765  0.00  0.00    +0.000 A 
ATOM      8  C   UNL     1     -60.550 -64.649 -70.872  0.00  0.00    +0.000 A 
ATOM      9  C   UNL     1     -59.746 -66.166 -72.568  0.00  0.00    +0.000 A 
ATOM     10  C   UNL     1     -59.506 -65.188 -71.614  0.00  0.00    +0.000 A 
ENDROOT
BRANCH   2  11
ATOM     11  C   UNL     1     -64.785 -63.719 -71.626  0.00  0.00    +0.000 A 
ATOM     12  C   UNL     1     -66.067 -63.927 -72.180  0.00  0.00    +0.000 A 
ATOM     13  C   UNL     1     -64.071 -62.567 -72.020  0.00  0.00    +0.000 A 
ATOM     14  C   UNL     1     -66.592 -63.021 -73.096  0.00  0.00    +0.000 A 
ATOM     15  C   UNL     1     -64.602 -61.670 -72.951  0.00  0.00    +0.000 A 
ATOM     16  C   UNL     1     -65.854 -61.909 -73.485  0.00  0.00    +0.000 A 
BRANCH  14  17
ATOM     17  O   UNL     1     -67.836 -63.168 -73.643  0.00  0.00    +0.000 OA
ATOM     18  H   UNL     1     -68.007 -62.436 -74.268  0.00  0.00    +0.000 HD
ENDBRANCH  14  17
BRANCH  16  19
ATOM     19  O   UNL     1     -66.375 -61.031 -74.392  0.00  0.00    +0.000 OA
ATOM     20  H   UNL     1     -67.341 -61.068 -74.240  0.00  0.00    +0.000 HD
ENDBRANCH  16  19
ENDBRANCH   2  11
BRANCH   3  21
ATOM     21  O   UNL     1     -64.141 -67.146 -70.014  0.00  0.00    +0.000 OA
ATOM     22  H   UNL     1     -63.237 -66.924 -69.714  0.00  0.00    +0.000 HD
ENDBRANCH   3  21
BRANCH   4  23
ATOM     23  O   UNL     1     -63.572 -67.932 -72.516  0.00  0.00    +0.000 OA
ATOM     24  H   UNL     1     -64.522 -68.170 -72.425  0.00  0.00    +0.000 HD
ENDBRANCH   4  23
BRANCH   7  25
ATOM     25  O   UNL     1     -61.230 -67.601 -73.692  0.00  0.00    +0.000 OA
ATOM     26  H   UNL     1     -61.698 -68.338 -73.241  0.00  0.00    +0.000 HD
ENDBRANCH   7  25
BRANCH  10  27
ATOM     27  O   UNL     1     -58.246 -64.723 -71.374  0.00  0.00    +0.000 OA
ATOM     28  H   UNL     1     -58.184 -64.474 -70.436  0.00  0.00    +0.000 HD
ENDBRANCH  10  27
BRANCH   2  29
ATOM     29  O   UNL     1     -64.936 -64.647 -69.357  0.00  0.00    +0.000 OA
BRANCH  29  31
ATOM     30  O   UNL     1     -65.128 -62.182 -66.597  0.00  0.00    +0.000 OA
ATOM     31  C   UNL     1     -64.399 -63.796 -68.325  0.00  0.00    +0.000 C 
ATOM     32  C   UNL     1     -65.580 -63.109 -67.594  0.00  0.00    +0.000 C 
ATOM     33  C   UNL     1     -63.614 -64.596 -67.281  0.00  0.00    +0.000 C 
ATOM     34  C   UNL     1     -63.467 -63.854 -65.981  0.00  0.00    +0.000 A 
ATOM     35  C   UNL     1     -64.219 -62.705 -65.718  0.00  0.00    +0.000 A 
ATOM     36  C   UNL     1     -62.576 -64.306 -65.000  0.00  0.00    +0.000 A 
ATOM     37  C   UNL     1     -64.052 -61.998 -64.526  0.00  0.00    +0.000 A 
ATOM     38  C   UNL     1     -62.412 -63.619 -63.800  0.00  0.00    +0.000 A 
ATOM     39  C   UNL     1     -63.150 -62.464 -63.576  0.00  0.00    +0.000 A 
BRANCH  32  40
ATOM     40  C   UNL     1     -66.458 -62.339 -68.570  0.00  0.00    +0.000 A 
ATOM     41  C   UNL     1     -65.985 -61.184 -69.211  0.00  0.00    +0.000 A 
ATOM     42  C   UNL     1     -67.734 -62.830 -68.904  0.00  0.00    +0.000 A 
ATOM     43  C   UNL     1     -66.755 -60.569 -70.196  0.00  0.00    +0.000 A 
ATOM     44  C   UNL     1     -68.510 -62.198 -69.879  0.00  0.00    +0.000 A 
ATOM     45  C   UNL     1     -68.008 -61.077 -70.533  0.00  0.00    +0.000 A 
BRANCH  43  46
ATOM     46  O   UNL     1     -66.260 -59.502 -70.890  0.00  0.00    +0.000 OA
ATOM     47  H   UNL     1     -65.535 -59.804 -71.462  0.00  0.00    +0.000 HD
ENDBRANCH  43  46
BRANCH  45  48
ATOM     48  O   UNL     1     -68.723 -60.481 -71.533  0.00  0.00    +0.000 OA
ATOM     49  H   UNL     1     -69.630 -60.826 -71.524  0.00  0.00    +0.000 HD
ENDBRANCH  45  48
ENDBRANCH  32  40
BRANCH  36  50
ATOM     50  O   UNL     1     -61.858 -65.444 -65.244  0.00  0.00    +0.000 OA
ATOM     51  H   UNL     1     -62.336 -65.985 -65.895  0.00  0.00    +0.000 HD
ENDBRANCH  36  50
BRANCH  39  52
ATOM     52  O   UNL     1     -62.961 -61.809 -62.394  0.00  0.00    +0.000 OA
ATOM     53  H   UNL     1     -62.103 -61.352 -62.425  0.00  0.00    +0.000 HD
ENDBRANCH  39  52
ENDBRANCH  29  31
ENDBRANCH   2  29
TORSDOF 14
ENDMDL
