MODEL 1
REMARK VINA RESULT:      -6.7      0.000      0.000
REMARK  Name = Progesterone.pdbqt.pdb
REMARK  1 active torsions:
REMARK  status: ('A' for Active; 'I' for Inactive)
REMARK    1  A    between atoms: C_7  and  C_21
REMARK                            x       y       z     vdW  Elec       q    Type
REMARK                         _______ _______ _______ _____ _____    ______ ____
ROOT
ATOM      1  O   UNL     1     -70.352 -46.197 -62.243  0.00  0.00    +0.000 OA
ATOM      2  C   UNL     1     -63.128 -46.280 -59.710  0.00  0.00    +0.000 C 
ATOM      3  C   UNL     1     -62.269 -44.916 -59.513  0.00  0.00    +0.000 C 
ATOM      4  C   UNL     1     -64.601 -46.307 -59.627  0.00  0.00    +0.000 C 
ATOM      5  C   UNL     1     -65.510 -45.109 -59.626  0.00  0.00    +0.000 C 
ATOM      6  C   UNL     1     -67.039 -45.185 -59.417  0.00  0.00    +0.000 C 
ATOM      7  C   UNL     1     -61.233 -45.013 -60.594  0.00  0.00    +0.000 C 
ATOM      8  C   UNL     1     -63.254 -43.848 -59.689  0.00  0.00    +0.000 C 
ATOM      9  C   UNL     1     -64.761 -43.904 -59.719  0.00  0.00    +0.000 C 
ATOM     10  C   UNL     1     -62.447 -47.071 -60.689  0.00  0.00    +0.000 C 
ATOM     11  C   UNL     1     -65.315 -47.527 -59.682  0.00  0.00    +0.000 C 
ATOM     12  C   UNL     1     -61.299 -46.275 -61.249  0.00  0.00    +0.000 C 
ATOM     13  C   UNL     1     -67.717 -46.663 -59.733  0.00  0.00    +0.000 C 
ATOM     14  C   UNL     1     -61.637 -44.991 -58.104  0.00  0.00    +0.000 C 
ATOM     15  C   UNL     1     -66.797 -47.741 -59.734  0.00  0.00    +0.000 C 
ATOM     16  C   UNL     1     -67.743 -44.284 -60.388  0.00  0.00    +0.000 C 
ATOM     17  C   UNL     1     -67.386 -44.832 -57.946  0.00  0.00    +0.000 C 
ATOM     18  C   UNL     1     -68.904 -44.515 -61.381  0.00  0.00    +0.000 C 
ATOM     19  C   UNL     1     -68.721 -46.708 -60.583  0.00  0.00    +0.000 C 
ATOM     20  C   UNL     1     -69.464 -45.848 -61.491  0.00  0.00    +0.000 C 
ENDROOT
BRANCH   7  21
ATOM     21  C   UNL     1     -60.274 -43.977 -60.887  0.00  0.00    +0.000 C 
ATOM     22  O   UNL     1     -59.772 -43.771 -61.979  0.00  0.00    +0.000 OA
ATOM     23  C   UNL     1     -59.835 -42.944 -59.902  0.00  0.00    +0.000 C 
ENDBRANCH   7  21
TORSDOF 1
ENDMDL
MODEL 2
REMARK VINA RESULT:      -6.4      4.722      7.332
REMARK  Name = Progesterone.pdbqt.pdb
REMARK  1 active torsions:
REMARK  status: ('A' for Active; 'I' for Inactive)
REMARK    1  A    between atoms: C_7  and  C_21
REMARK                            x       y       z     vdW  Elec       q    Type
REMARK                         _______ _______ _______ _____ _____    ______ ____
ROOT
ATOM      1  O   UNL     1     -61.631 -47.390 -61.482  0.00  0.00    +0.000 OA
ATOM      2  C   UNL     1     -66.789 -48.187 -55.881  0.00  0.00    +0.000 C 
ATOM      3  C   UNL     1     -66.415 -47.924 -54.323  0.00  0.00    +0.000 C 
ATOM      4  C   UNL     1     -66.072 -47.527 -56.990  0.00  0.00    +0.000 C 
ATOM      5  C   UNL     1     -64.780 -46.767 -56.880  0.00  0.00    +0.000 C 
ATOM      6  C   UNL     1     -64.132 -45.992 -58.049  0.00  0.00    +0.000 C 
ATOM      7  C   UNL     1     -66.477 -49.299 -53.726  0.00  0.00    +0.000 C 
ATOM      8  C   UNL     1     -65.081 -47.326 -54.374  0.00  0.00    +0.000 C 
ATOM      9  C   UNL     1     -64.309 -46.758 -55.539  0.00  0.00    +0.000 C 
ATOM     10  C   UNL     1     -67.187 -49.557 -55.995  0.00  0.00    +0.000 C 
ATOM     11  C   UNL     1     -66.497 -47.681 -58.330  0.00  0.00    +0.000 C 
ATOM     12  C   UNL     1     -66.966 -50.243 -54.673  0.00  0.00    +0.000 C 
ATOM     13  C   UNL     1     -64.617 -46.468 -59.560  0.00  0.00    +0.000 C 
ATOM     14  C   UNL     1     -67.518 -47.001 -53.754  0.00  0.00    +0.000 C 
ATOM     15  C   UNL     1     -65.834 -47.194 -59.583  0.00  0.00    +0.000 C 
ATOM     16  C   UNL     1     -62.653 -46.243 -58.084  0.00  0.00    +0.000 C 
ATOM     17  C   UNL     1     -64.459 -44.481 -57.923  0.00  0.00    +0.000 C 
ATOM     18  C   UNL     1     -61.691 -46.694 -59.206  0.00  0.00    +0.000 C 
ATOM     19  C   UNL     1     -63.685 -46.801 -60.428  0.00  0.00    +0.000 C 
ATOM     20  C   UNL     1     -62.245 -46.995 -60.511  0.00  0.00    +0.000 C 
ENDROOT
BRANCH   7  21
ATOM     21  C   UNL     1     -66.128 -49.601 -52.360  0.00  0.00    +0.000 C 
ATOM     22  O   UNL     1     -65.272 -49.027 -51.708  0.00  0.00    +0.000 OA
ATOM     23  C   UNL     1     -66.845 -50.607 -51.520  0.00  0.00    +0.000 C 
ENDBRANCH   7  21
TORSDOF 1
ENDMDL
MODEL 3
REMARK VINA RESULT:      -6.4     43.231     44.979
REMARK  Name = Progesterone.pdbqt.pdb
REMARK  1 active torsions:
REMARK  status: ('A' for Active; 'I' for Inactive)
REMARK    1  A    between atoms: C_7  and  C_21
REMARK                            x       y       z     vdW  Elec       q    Type
REMARK                         _______ _______ _______ _____ _____    ______ ____
ROOT
ATOM      1  O   UNL     1     -63.697 -61.620 -16.446  0.00  0.00    +0.000 OA
ATOM      2  C   UNL     1     -63.572 -54.032 -17.456  0.00  0.00    +0.000 C 
ATOM      3  C   UNL     1     -64.768 -53.072 -16.921  0.00  0.00    +0.000 C 
ATOM      4  C   UNL     1     -63.254 -55.328 -16.826  0.00  0.00    +0.000 C 
ATOM      5  C   UNL     1     -64.106 -56.059 -15.825  0.00  0.00    +0.000 C 
ATOM      6  C   UNL     1     -63.673 -57.355 -15.105  0.00  0.00    +0.000 C 
ATOM      7  C   UNL     1     -65.416 -52.605 -18.190  0.00  0.00    +0.000 C 
ATOM      8  C   UNL     1     -65.588 -53.956 -16.091  0.00  0.00    +0.000 C 
ATOM      9  C   UNL     1     -65.297 -55.333 -15.547  0.00  0.00    +0.000 C 
ATOM     10  C   UNL     1     -63.523 -53.892 -18.880  0.00  0.00    +0.000 C 
ATOM     11  C   UNL     1     -62.132 -56.085 -17.236  0.00  0.00    +0.000 C 
ATOM     12  C   UNL     1     -64.677 -53.035 -19.328  0.00  0.00    +0.000 C 
ATOM     13  C   UNL     1     -62.473 -58.211 -15.862  0.00  0.00    +0.000 C 
ATOM     14  C   UNL     1     -64.092 -51.909 -16.158  0.00  0.00    +0.000 C 
ATOM     15  C   UNL     1     -61.725 -57.461 -16.803  0.00  0.00    +0.000 C 
ATOM     16  C   UNL     1     -64.808 -58.336 -15.070  0.00  0.00    +0.000 C 
ATOM     17  C   UNL     1     -63.159 -57.017 -13.680  0.00  0.00    +0.000 C 
ATOM     18  C   UNL     1     -64.922 -59.823 -15.476  0.00  0.00    +0.000 C 
ATOM     19  C   UNL     1     -62.698 -59.481 -16.124  0.00  0.00    +0.000 C 
ATOM     20  C   UNL     1     -63.760 -60.473 -16.049  0.00  0.00    +0.000 C 
ENDROOT
BRANCH   7  21
ATOM     21  C   UNL     1     -66.603 -51.787 -18.234  0.00  0.00    +0.000 C 
ATOM     22  O   UNL     1     -66.964 -51.021 -17.357  0.00  0.00    +0.000 OA
ATOM     23  C   UNL     1     -67.510 -51.698 -19.418  0.00  0.00    +0.000 C 
ENDBRANCH   7  21
TORSDOF 1
ENDMDL
MODEL 4
REMARK VINA RESULT:      -6.3     12.700     14.792
REMARK  Name = Progesterone.pdbqt.pdb
REMARK  1 active torsions:
REMARK  status: ('A' for Active; 'I' for Inactive)
REMARK    1  A    between atoms: C_7  and  C_21
REMARK                            x       y       z     vdW  Elec       q    Type
REMARK                         _______ _______ _______ _____ _____    ______ ____
ROOT
ATOM      1  O   UNL     1     -59.727 -54.634 -59.615  0.00  0.00    +0.000 OA
ATOM      2  C   UNL     1     -59.141 -57.151 -52.408  0.00  0.00    +0.000 C 
ATOM      3  C   UNL     1     -60.444 -57.563 -51.531  0.00  0.00    +0.000 C 
ATOM      4  C   UNL     1     -59.123 -57.223 -53.882  0.00  0.00    +0.000 C 
ATOM      5  C   UNL     1     -60.319 -57.409 -54.774  0.00  0.00    +0.000 C 
ATOM      6  C   UNL     1     -60.234 -57.597 -56.305  0.00  0.00    +0.000 C 
ATOM      7  C   UNL     1     -60.502 -56.484 -50.490  0.00  0.00    +0.000 C 
ATOM      8  C   UNL     1     -61.541 -57.553 -52.500  0.00  0.00    +0.000 C 
ATOM      9  C   UNL     1     -61.512 -57.509 -54.007  0.00  0.00    +0.000 C 
ATOM     10  C   UNL     1     -58.502 -56.063 -51.732  0.00  0.00    +0.000 C 
ATOM     11  C   UNL     1     -57.937 -56.975 -54.612  0.00  0.00    +0.000 C 
ATOM     12  C   UNL     1     -59.359 -55.639 -50.569  0.00  0.00    +0.000 C 
ATOM     13  C   UNL     1     -58.833 -57.051 -57.002  0.00  0.00    +0.000 C 
ATOM     14  C   UNL     1     -60.139 -58.945 -50.909  0.00  0.00    +0.000 C 
ATOM     15  C   UNL     1     -57.756 -56.883 -56.097  0.00  0.00    +0.000 C 
ATOM     16  C   UNL     1     -61.286 -56.777 -56.990  0.00  0.00    +0.000 C 
ATOM     17  C   UNL     1     -60.357 -59.104 -56.656  0.00  0.00    +0.000 C 
ATOM     18  C   UNL     1     -61.231 -55.755 -58.149  0.00  0.00    +0.000 C 
ATOM     19  C   UNL     1     -58.937 -56.200 -58.001  0.00  0.00    +0.000 C 
ATOM     20  C   UNL     1     -59.941 -55.435 -58.726  0.00  0.00    +0.000 C 
ENDROOT
BRANCH   7  21
ATOM     21  C   UNL     1     -61.557 -56.361 -49.515  0.00  0.00    +0.000 C 
ATOM     22  O   UNL     1     -61.710 -57.088 -48.548  0.00  0.00    +0.000 OA
ATOM     23  C   UNL     1     -62.560 -55.255 -49.508  0.00  0.00    +0.000 C 
ENDBRANCH   7  21
TORSDOF 1
ENDMDL
MODEL 5
REMARK VINA RESULT:      -6.3     12.236     15.232
REMARK  Name = Progesterone.pdbqt.pdb
REMARK  1 active torsions:
REMARK  status: ('A' for Active; 'I' for Inactive)
REMARK    1  A    between atoms: C_7  and  C_21
REMARK                            x       y       z     vdW  Elec       q    Type
REMARK                         _______ _______ _______ _____ _____    ______ ____
ROOT
ATOM      1  O   UNL     1     -56.401 -58.918 -67.034  0.00  0.00    +0.000 OA
ATOM      2  C   UNL     1     -58.178 -56.414 -60.020  0.00  0.00    +0.000 C 
ATOM      3  C   UNL     1     -59.323 -57.127 -59.116  0.00  0.00    +0.000 C 
ATOM      4  C   UNL     1     -57.418 -57.142 -61.055  0.00  0.00    +0.000 C 
ATOM      5  C   UNL     1     -57.749 -58.503 -61.603  0.00  0.00    +0.000 C 
ATOM      6  C   UNL     1     -56.854 -59.273 -62.600  0.00  0.00    +0.000 C 
ATOM      7  C   UNL     1     -60.413 -56.097 -59.082  0.00  0.00    +0.000 C 
ATOM      8  C   UNL     1     -59.644 -58.351 -59.851  0.00  0.00    +0.000 C 
ATOM      9  C   UNL     1     -58.920 -59.026 -60.989  0.00  0.00    +0.000 C 
ATOM     10  C   UNL     1     -58.600 -55.066 -60.251  0.00  0.00    +0.000 C 
ATOM     11  C   UNL     1     -56.345 -56.529 -61.743  0.00  0.00    +0.000 C 
ATOM     12  C   UNL     1     -59.987 -54.885 -59.697  0.00  0.00    +0.000 C 
ATOM     13  C   UNL     1     -55.796 -58.335 -63.462  0.00  0.00    +0.000 C 
ATOM     14  C   UNL     1     -58.703 -57.354 -57.718  0.00  0.00    +0.000 C 
ATOM     15  C   UNL     1     -55.546 -57.061 -62.894  0.00  0.00    +0.000 C 
ATOM     16  C   UNL     1     -57.693 -59.899 -63.675  0.00  0.00    +0.000 C 
ATOM     17  C   UNL     1     -56.009 -60.329 -61.839  0.00  0.00    +0.000 C 
ATOM     18  C   UNL     1     -57.613 -59.869 -65.218  0.00  0.00    +0.000 C 
ATOM     19  C   UNL     1     -55.820 -58.431 -64.775  0.00  0.00    +0.000 C 
ATOM     20  C   UNL     1     -56.575 -59.071 -65.841  0.00  0.00    +0.000 C 
ENDROOT
BRANCH   7  21
ATOM     21  C   UNL     1     -61.699 -56.305 -58.464  0.00  0.00    +0.000 C 
ATOM     22  O   UNL     1     -62.677 -56.781 -59.017  0.00  0.00    +0.000 OA
ATOM     23  C   UNL     1     -61.981 -56.050 -57.020  0.00  0.00    +0.000 C 
ENDBRANCH   7  21
TORSDOF 1
ENDMDL
MODEL 6
REMARK VINA RESULT:      -6.3     25.102     27.148
REMARK  Name = Progesterone.pdbqt.pdb
REMARK  1 active torsions:
REMARK  status: ('A' for Active; 'I' for Inactive)
REMARK    1  A    between atoms: C_7  and  C_21
REMARK                            x       y       z     vdW  Elec       q    Type
REMARK                         _______ _______ _______ _____ _____    ______ ____
ROOT
ATOM      1  O   UNL     1     -63.178 -47.791 -39.178  0.00  0.00    +0.000 OA
ATOM      2  C   UNL     1     -67.166 -48.066 -32.649  0.00  0.00    +0.000 C 
ATOM      3  C   UNL     1     -66.532 -47.589 -31.232  0.00  0.00    +0.000 C 
ATOM      4  C   UNL     1     -66.707 -47.526 -33.944  0.00  0.00    +0.000 C 
ATOM      5  C   UNL     1     -65.468 -46.706 -34.172  0.00  0.00    +0.000 C 
ATOM      6  C   UNL     1     -65.095 -46.064 -35.526  0.00  0.00    +0.000 C 
ATOM      7  C   UNL     1     -66.396 -48.877 -30.475  0.00  0.00    +0.000 C 
ATOM      8  C   UNL     1     -65.270 -46.949 -31.605  0.00  0.00    +0.000 C 
ATOM      9  C   UNL     1     -64.761 -46.506 -32.954  0.00  0.00    +0.000 C 
ATOM     10  C   UNL     1     -67.490 -49.454 -32.521  0.00  0.00    +0.000 C 
ATOM     11  C   UNL     1     -67.359 -47.869 -35.151  0.00  0.00    +0.000 C 
ATOM     12  C   UNL     1     -66.988 -49.954 -31.193  0.00  0.00    +0.000 C 
ATOM     13  C   UNL     1     -65.816 -46.750 -36.851  0.00  0.00    +0.000 C 
ATOM     14  C   UNL     1     -67.569 -46.646 -30.579  0.00  0.00    +0.000 C 
ATOM     15  C   UNL     1     -66.968 -47.521 -36.556  0.00  0.00    +0.000 C 
ATOM     16  C   UNL     1     -63.634 -46.256 -35.810  0.00  0.00    +0.000 C 
ATOM     17  C   UNL     1     -65.489 -44.563 -35.522  0.00  0.00    +0.000 C 
ATOM     18  C   UNL     1     -62.866 -46.810 -37.031  0.00  0.00    +0.000 C 
ATOM     19  C   UNL     1     -65.039 -47.154 -37.833  0.00  0.00    +0.000 C 
ATOM     20  C   UNL     1     -63.629 -47.299 -38.163  0.00  0.00    +0.000 C 
ENDROOT
BRANCH   7  21
ATOM     21  C   UNL     1     -65.785 -48.986 -29.173  0.00  0.00    +0.000 C 
ATOM     22  O   UNL     1     -64.651 -49.378 -28.958  0.00  0.00    +0.000 OA
ATOM     23  C   UNL     1     -66.438 -48.538 -27.906  0.00  0.00    +0.000 C 
ENDBRANCH   7  21
TORSDOF 1
ENDMDL
MODEL 7
REMARK VINA RESULT:      -6.2     25.527     27.524
REMARK  Name = Progesterone.pdbqt.pdb
REMARK  1 active torsions:
REMARK  status: ('A' for Active; 'I' for Inactive)
REMARK    1  A    between atoms: C_7  and  C_21
REMARK                            x       y       z     vdW  Elec       q    Type
REMARK                         _______ _______ _______ _____ _____    ______ ____
ROOT
ATOM      1  O   UNL     1     -66.941 -53.825 -40.856  0.00  0.00    +0.000 OA
ATOM      2  C   UNL     1     -68.922 -58.046 -34.783  0.00  0.00    +0.000 C 
ATOM      3  C   UNL     1     -70.121 -57.603 -33.782  0.00  0.00    +0.000 C 
ATOM      4  C   UNL     1     -68.879 -57.632 -36.199  0.00  0.00    +0.000 C 
ATOM      5  C   UNL     1     -69.733 -56.571 -36.838  0.00  0.00    +0.000 C 
ATOM      6  C   UNL     1     -69.733 -56.258 -38.350  0.00  0.00    +0.000 C 
ATOM      7  C   UNL     1     -69.391 -57.254 -32.519  0.00  0.00    +0.000 C 
ATOM      8  C   UNL     1     -70.757 -56.477 -34.465  0.00  0.00    +0.000 C 
ATOM      9  C   UNL     1     -70.616 -55.991 -35.886  0.00  0.00    +0.000 C 
ATOM     10  C   UNL     1     -67.719 -58.090 -34.009  0.00  0.00    +0.000 C 
ATOM     11  C   UNL     1     -67.889 -58.130 -37.078  0.00  0.00    +0.000 C 
ATOM     12  C   UNL     1     -68.008 -57.576 -32.625  0.00  0.00    +0.000 C 
ATOM     13  C   UNL     1     -68.379 -56.749 -39.169  0.00  0.00    +0.000 C 
ATOM     14  C   UNL     1     -71.025 -58.845 -33.599  0.00  0.00    +0.000 C 
ATOM     15  C   UNL     1     -67.616 -57.737 -38.498  0.00  0.00    +0.000 C 
ATOM     16  C   UNL     1     -69.735 -54.774 -38.575  0.00  0.00    +0.000 C 
ATOM     17  C   UNL     1     -70.948 -56.945 -39.029  0.00  0.00    +0.000 C 
ATOM     18  C   UNL     1     -68.848 -53.841 -39.430  0.00  0.00    +0.000 C 
ATOM     19  C   UNL     1     -67.734 -55.851 -39.883  0.00  0.00    +0.000 C 
ATOM     20  C   UNL     1     -67.744 -54.424 -40.169  0.00  0.00    +0.000 C 
ENDROOT
BRANCH   7  21
ATOM     21  C   UNL     1     -70.027 -56.711 -31.344  0.00  0.00    +0.000 C 
ATOM     22  O   UNL     1     -70.593 -57.364 -30.483  0.00  0.00    +0.000 OA
ATOM     23  C   UNL     1     -69.995 -55.265 -30.973  0.00  0.00    +0.000 C 
ENDBRANCH   7  21
TORSDOF 1
ENDMDL
MODEL 8
REMARK VINA RESULT:      -6.2     43.324     44.976
REMARK  Name = Progesterone.pdbqt.pdb
REMARK  1 active torsions:
REMARK  status: ('A' for Active; 'I' for Inactive)
REMARK    1  A    between atoms: C_7  and  C_21
REMARK                            x       y       z     vdW  Elec       q    Type
REMARK                         _______ _______ _______ _____ _____    ______ ____
ROOT
ATOM      1  O   UNL     1     -66.793 -52.101 -19.357  0.00  0.00    +0.000 OA
ATOM      2  C   UNL     1     -63.441 -57.810 -15.512  0.00  0.00    +0.000 C 
ATOM      3  C   UNL     1     -61.988 -58.397 -15.936  0.00  0.00    +0.000 C 
ATOM      4  C   UNL     1     -63.852 -56.424 -15.808  0.00  0.00    +0.000 C 
ATOM      5  C   UNL     1     -63.152 -55.472 -16.738  0.00  0.00    +0.000 C 
ATOM      6  C   UNL     1     -63.554 -53.992 -16.922  0.00  0.00    +0.000 C 
ATOM      7  C   UNL     1     -62.317 -59.768 -16.448  0.00  0.00    +0.000 C 
ATOM      8  C   UNL     1     -61.505 -57.455 -16.946  0.00  0.00    +0.000 C 
ATOM      9  C   UNL     1     -62.008 -56.083 -17.321  0.00  0.00    +0.000 C 
ATOM     10  C   UNL     1     -64.382 -58.882 -15.631  0.00  0.00    +0.000 C 
ATOM     11  C   UNL     1     -65.074 -55.903 -15.321  0.00  0.00    +0.000 C 
ATOM     12  C   UNL     1     -63.691 -60.075 -16.234  0.00  0.00    +0.000 C 
ATOM     13  C   UNL     1     -65.108 -53.627 -16.477  0.00  0.00    +0.000 C 
ATOM     14  C   UNL     1     -61.140 -58.455 -14.645  0.00  0.00    +0.000 C 
ATOM     15  C   UNL     1     -65.708 -54.577 -15.615  0.00  0.00    +0.000 C 
ATOM     16  C   UNL     1     -63.533 -53.623 -18.377  0.00  0.00    +0.000 C 
ATOM     17  C   UNL     1     -62.617 -53.084 -16.083  0.00  0.00    +0.000 C 
ATOM     18  C   UNL     1     -64.569 -52.950 -19.304  0.00  0.00    +0.000 C 
ATOM     19  C   UNL     1     -65.875 -53.026 -17.362  0.00  0.00    +0.000 C 
ATOM     20  C   UNL     1     -65.865 -52.603 -18.754  0.00  0.00    +0.000 C 
ENDROOT
BRANCH   7  21
ATOM     21  C   UNL     1     -61.350 -60.663 -17.034  0.00  0.00    +0.000 C 
ATOM     22  O   UNL     1     -60.753 -60.468 -18.080  0.00  0.00    +0.000 OA
ATOM     23  C   UNL     1     -60.875 -61.920 -16.382  0.00  0.00    +0.000 C 
ENDBRANCH   7  21
TORSDOF 1
ENDMDL
MODEL 9
REMARK VINA RESULT:      -5.9     35.004     37.285
REMARK  Name = Progesterone.pdbqt.pdb
REMARK  1 active torsions:
REMARK  status: ('A' for Active; 'I' for Inactive)
REMARK    1  A    between atoms: C_7  and  C_21
REMARK                            x       y       z     vdW  Elec       q    Type
REMARK                         _______ _______ _______ _____ _____    ______ ____
ROOT
ATOM      1  O   UNL     1     -69.580 -55.998 -31.035  0.00  0.00    +0.000 OA
ATOM      2  C   UNL     1     -73.397 -58.472 -24.876  0.00  0.00    +0.000 C 
ATOM      3  C   UNL     1     -74.315 -57.479 -23.977  0.00  0.00    +0.000 C 
ATOM      4  C   UNL     1     -73.132 -58.226 -26.307  0.00  0.00    +0.000 C 
ATOM      5  C   UNL     1     -73.418 -56.952 -27.054  0.00  0.00    +0.000 C 
ATOM      6  C   UNL     1     -73.233 -56.785 -28.579  0.00  0.00    +0.000 C 
ATOM      7  C   UNL     1     -73.548 -57.385 -22.692  0.00  0.00    +0.000 C 
ATOM      8  C   UNL     1     -74.374 -56.244 -24.759  0.00  0.00    +0.000 C 
ATOM      9  C   UNL     1     -73.990 -55.976 -26.193  0.00  0.00    +0.000 C 
ATOM     10  C   UNL     1     -72.359 -58.973 -24.028  0.00  0.00    +0.000 C 
ATOM     11  C   UNL     1     -72.431 -59.168 -27.094  0.00  0.00    +0.000 C 
ATOM     12  C   UNL     1     -72.440 -58.280 -22.694  0.00  0.00    +0.000 C 
ATOM     13  C   UNL     1     -72.202 -57.875 -29.284  0.00  0.00    +0.000 C 
ATOM     14  C   UNL     1     -75.675 -58.190 -23.783  0.00  0.00    +0.000 C 
ATOM     15  C   UNL     1     -71.968 -59.041 -28.514  0.00  0.00    +0.000 C 
ATOM     16  C   UNL     1     -72.581 -55.469 -28.884  0.00  0.00    +0.000 C 
ATOM     17  C   UNL     1     -74.603 -56.930 -29.293  0.00  0.00    +0.000 C 
ATOM     18  C   UNL     1     -71.349 -55.079 -29.732  0.00  0.00    +0.000 C 
ATOM     19  C   UNL     1     -71.207 -57.401 -30.004  0.00  0.00    +0.000 C 
ATOM     20  C   UNL     1     -70.586 -56.136 -30.367  0.00  0.00    +0.000 C 
ENDROOT
BRANCH   7  21
ATOM     21  C   UNL     1     -73.921 -56.532 -21.590  0.00  0.00    +0.000 C 
ATOM     22  O   UNL     1     -75.047 -56.423 -21.134  0.00  0.00    +0.000 OA
ATOM     23  C   UNL     1     -72.948 -55.731 -20.790  0.00  0.00    +0.000 C 
ENDBRANCH   7  21
TORSDOF 1
ENDMDL
