MODEL 1
REMARK VINA RESULT:      -6.0      0.000      0.000
REMARK  Name = Quercetin.pdbqt.pdb
REMARK  6 active torsions:
REMARK  status: ('A' for Active; 'I' for Inactive)
REMARK    1  A    between atoms: C_5  and  C_12
REMARK    2  A    between atoms: C_6  and  O_22
REMARK    3  A    between atoms: C_8  and  O_24
REMARK    4  A    between atoms: C_10  and  O_26
REMARK    5  A    between atoms: C_15  and  O_18
REMARK    6  A    between atoms: C_17  and  O_20
REMARK                            x       y       z     vdW  Elec       q    Type
REMARK                         _______ _______ _______ _____ _____    ______ ____
ROOT
ATOM      1  O   UNL     1     -67.931 -56.104 -37.224  0.00  0.00    +0.000 OA
ATOM      2  O   UNL     1     -67.898 -59.391 -39.615  0.00  0.00    +0.000 OA
ATOM      3  C   UNL     1     -67.568 -57.093 -39.408  0.00  0.00    +0.000 A 
ATOM      4  C   UNL     1     -67.599 -56.001 -38.547  0.00  0.00    +0.000 A 
ATOM      5  C   UNL     1     -68.237 -57.354 -36.704  0.00  0.00    +0.000 A 
ATOM      6  C   UNL     1     -68.259 -58.496 -37.424  0.00  0.00    +0.000 A 
ATOM      7  C   UNL     1     -67.909 -58.413 -38.871  0.00  0.00    +0.000 A 
ATOM      8  C   UNL     1     -67.220 -56.913 -40.753  0.00  0.00    +0.000 A 
ATOM      9  C   UNL     1     -67.284 -54.729 -39.019  0.00  0.00    +0.000 A 
ATOM     10  C   UNL     1     -66.938 -54.561 -40.356  0.00  0.00    +0.000 A 
ATOM     11  C   UNL     1     -66.904 -55.644 -41.229  0.00  0.00    +0.000 A 
ENDROOT
BRANCH   5  12
ATOM     12  C   UNL     1     -68.547 -57.294 -35.269  0.00  0.00    +0.000 A 
ATOM     13  C   UNL     1     -67.688 -57.863 -34.323  0.00  0.00    +0.000 A 
ATOM     14  C   UNL     1     -69.685 -56.603 -34.834  0.00  0.00    +0.000 A 
ATOM     15  C   UNL     1     -67.987 -57.759 -32.970  0.00  0.00    +0.000 A 
ATOM     16  C   UNL     1     -69.973 -56.486 -33.475  0.00  0.00    +0.000 A 
ATOM     17  C   UNL     1     -69.109 -57.053 -32.549  0.00  0.00    +0.000 A 
BRANCH  15  18
ATOM     18  O   UNL     1     -67.181 -58.391 -32.069  0.00  0.00    +0.000 OA
ATOM     19  H   UNL     1     -67.583 -59.261 -31.887  0.00  0.00    +0.000 HD
ENDBRANCH  15  18
BRANCH  17  20
ATOM     20  O   UNL     1     -69.362 -56.888 -31.218  0.00  0.00    +0.000 OA
ATOM     21  H   UNL     1     -69.042 -57.695 -30.773  0.00  0.00    +0.000 HD
ENDBRANCH  17  20
ENDBRANCH   5  12
BRANCH   6  22
ATOM     22  O   UNL     1     -68.599 -59.743 -36.935  0.00  0.00    +0.000 OA
ATOM     23  H   UNL     1     -67.802 -60.281 -36.803  0.00  0.00    +0.000 HD
ENDBRANCH   6  22
BRANCH   8  24
ATOM     24  O   UNL     1     -67.171 -57.940 -41.656  0.00  0.00    +0.000 OA
ATOM     25  H   UNL     1     -68.092 -58.146 -41.941  0.00  0.00    +0.000 HD
ENDBRANCH   8  24
BRANCH  10  26
ATOM     26  O   UNL     1     -66.634 -53.305 -40.795  0.00  0.00    +0.000 OA
ATOM     27  H   UNL     1     -65.694 -53.136 -40.601  0.00  0.00    +0.000 HD
ENDBRANCH  10  26
TORSDOF 6
ENDMDL
MODEL 2
REMARK VINA RESULT:      -5.8      1.540      6.366
REMARK  Name = Quercetin.pdbqt.pdb
REMARK  6 active torsions:
REMARK  status: ('A' for Active; 'I' for Inactive)
REMARK    1  A    between atoms: C_5  and  C_12
REMARK    2  A    between atoms: C_6  and  O_22
REMARK    3  A    between atoms: C_8  and  O_24
REMARK    4  A    between atoms: C_10  and  O_26
REMARK    5  A    between atoms: C_15  and  O_18
REMARK    6  A    between atoms: C_17  and  O_20
REMARK                            x       y       z     vdW  Elec       q    Type
REMARK                         _______ _______ _______ _____ _____    ______ ____
ROOT
ATOM      1  O   UNL     1     -68.102 -56.711 -36.375  0.00  0.00    +0.000 OA
ATOM      2  O   UNL     1     -67.350 -60.589 -37.333  0.00  0.00    +0.000 OA
ATOM      3  C   UNL     1     -67.656 -58.987 -35.667  0.00  0.00    +0.000 A 
ATOM      4  C   UNL     1     -67.912 -57.647 -35.396  0.00  0.00    +0.000 A 
ATOM      5  C   UNL     1     -68.056 -57.110 -37.703  0.00  0.00    +0.000 A 
ATOM      6  C   UNL     1     -67.805 -58.372 -38.113  0.00  0.00    +0.000 A 
ATOM      7  C   UNL     1     -67.585 -59.413 -37.068  0.00  0.00    +0.000 A 
ATOM      8  C   UNL     1     -67.470 -59.891 -34.614  0.00  0.00    +0.000 A 
ATOM      9  C   UNL     1     -67.984 -57.202 -34.077  0.00  0.00    +0.000 A 
ATOM     10  C   UNL     1     -67.799 -58.109 -33.038  0.00  0.00    +0.000 A 
ATOM     11  C   UNL     1     -67.542 -59.451 -33.295  0.00  0.00    +0.000 A 
ENDROOT
BRANCH   5  12
ATOM     12  C   UNL     1     -68.303 -55.992 -38.624  0.00  0.00    +0.000 A 
ATOM     13  C   UNL     1     -67.243 -55.263 -39.171  0.00  0.00    +0.000 A 
ATOM     14  C   UNL     1     -69.615 -55.688 -39.009  0.00  0.00    +0.000 A 
ATOM     15  C   UNL     1     -67.503 -54.235 -40.069  0.00  0.00    +0.000 A 
ATOM     16  C   UNL     1     -69.873 -54.667 -39.923  0.00  0.00    +0.000 A 
ATOM     17  C   UNL     1     -68.809 -53.956 -40.460  0.00  0.00    +0.000 A 
BRANCH  15  18
ATOM     18  O   UNL     1     -66.461 -53.484 -40.527  0.00  0.00    +0.000 OA
ATOM     19  H   UNL     1     -66.633 -53.301 -41.470  0.00  0.00    +0.000 HD
ENDBRANCH  15  18
BRANCH  17  20
ATOM     20  O   UNL     1     -69.058 -52.996 -41.396  0.00  0.00    +0.000 OA
ATOM     21  H   UNL     1     -68.369 -52.314 -41.286  0.00  0.00    +0.000 HD
ENDBRANCH  17  20
ENDBRANCH   5  12
BRANCH   6  22
ATOM     22  O   UNL     1     -67.715 -58.782 -39.430  0.00  0.00    +0.000 OA
ATOM     23  H   UNL     1     -68.525 -58.547 -39.910  0.00  0.00    +0.000 HD
ENDBRANCH   6  22
BRANCH   8  24
ATOM     24  O   UNL     1     -67.213 -61.221 -34.807  0.00  0.00    +0.000 OA
ATOM     25  H   UNL     1     -66.532 -61.503 -34.151  0.00  0.00    +0.000 HD
ENDBRANCH   8  24
BRANCH  10  26
ATOM     26  O   UNL     1     -67.875 -57.649 -31.756  0.00  0.00    +0.000 OA
ATOM     27  H   UNL     1     -68.784 -57.791 -31.436  0.00  0.00    +0.000 HD
ENDBRANCH  10  26
TORSDOF 6
ENDMDL
MODEL 3
REMARK VINA RESULT:      -5.4     35.676     39.782
REMARK  Name = Quercetin.pdbqt.pdb
REMARK  6 active torsions:
REMARK  status: ('A' for Active; 'I' for Inactive)
REMARK    1  A    between atoms: C_5  and  C_12
REMARK    2  A    between atoms: C_6  and  O_22
REMARK    3  A    between atoms: C_8  and  O_24
REMARK    4  A    between atoms: C_10  and  O_26
REMARK    5  A    between atoms: C_15  and  O_18
REMARK    6  A    between atoms: C_17  and  O_20
REMARK                            x       y       z     vdW  Elec       q    Type
REMARK                         _______ _______ _______ _____ _____    ______ ____
ROOT
ATOM      1  O   UNL     1     -64.523 -60.093 -76.808  0.00  0.00    +0.000 OA
ATOM      2  O   UNL     1     -64.661 -63.866 -78.314  0.00  0.00    +0.000 OA
ATOM      3  C   UNL     1     -63.811 -61.702 -78.477  0.00  0.00    +0.000 A 
ATOM      4  C   UNL     1     -63.803 -60.427 -77.922  0.00  0.00    +0.000 A 
ATOM      5  C   UNL     1     -65.286 -61.070 -76.186  0.00  0.00    +0.000 A 
ATOM      6  C   UNL     1     -65.398 -62.344 -76.619  0.00  0.00    +0.000 A 
ATOM      7  C   UNL     1     -64.631 -62.735 -77.836  0.00  0.00    +0.000 A 
ATOM      8  C   UNL     1     -63.049 -61.972 -79.621  0.00  0.00    +0.000 A 
ATOM      9  C   UNL     1     -63.038 -59.417 -78.503  0.00  0.00    +0.000 A 
ATOM     10  C   UNL     1     -62.285 -59.696 -79.639  0.00  0.00    +0.000 A 
ATOM     11  C   UNL     1     -62.284 -60.967 -80.204  0.00  0.00    +0.000 A 
ENDROOT
BRANCH   5  12
ATOM     12  C   UNL     1     -65.975 -60.555 -74.994  0.00  0.00    +0.000 A 
ATOM     13  C   UNL     1     -65.498 -60.834 -73.709  0.00  0.00    +0.000 A 
ATOM     14  C   UNL     1     -67.091 -59.722 -75.145  0.00  0.00    +0.000 A 
ATOM     15  C   UNL     1     -66.147 -60.304 -72.602  0.00  0.00    +0.000 A 
ATOM     16  C   UNL     1     -67.731 -59.178 -74.032  0.00  0.00    +0.000 A 
ATOM     17  C   UNL     1     -67.241 -59.461 -72.764  0.00  0.00    +0.000 A 
BRANCH  15  18
ATOM     18  O   UNL     1     -65.714 -60.655 -71.357  0.00  0.00    +0.000 OA
ATOM     19  H   UNL     1     -64.760 -60.844 -71.429  0.00  0.00    +0.000 HD
ENDBRANCH  15  18
BRANCH  17  20
ATOM     20  O   UNL     1     -67.833 -58.882 -71.680  0.00  0.00    +0.000 OA
ATOM     21  H   UNL     1     -68.558 -58.326 -72.023  0.00  0.00    +0.000 HD
ENDBRANCH  17  20
ENDBRANCH   5  12
BRANCH   6  22
ATOM     22  O   UNL     1     -66.183 -63.321 -76.037  0.00  0.00    +0.000 OA
ATOM     23  H   UNL     1     -66.748 -62.932 -75.350  0.00  0.00    +0.000 HD
ENDBRANCH   6  22
BRANCH   8  24
ATOM     24  O   UNL     1     -63.011 -63.202 -80.221  0.00  0.00    +0.000 OA
ATOM     25  H   UNL     1     -62.837 -63.880 -79.526  0.00  0.00    +0.000 HD
ENDBRANCH   8  24
BRANCH  10  26
ATOM     26  O   UNL     1     -61.545 -58.690 -80.189  0.00  0.00    +0.000 OA
ATOM     27  H   UNL     1     -61.720 -57.875 -79.687  0.00  0.00    +0.000 HD
ENDBRANCH  10  26
TORSDOF 6
ENDMDL
MODEL 4
REMARK VINA RESULT:      -5.4      1.592      7.000
REMARK  Name = Quercetin.pdbqt.pdb
REMARK  6 active torsions:
REMARK  status: ('A' for Active; 'I' for Inactive)
REMARK    1  A    between atoms: C_5  and  C_12
REMARK    2  A    between atoms: C_6  and  O_22
REMARK    3  A    between atoms: C_8  and  O_24
REMARK    4  A    between atoms: C_10  and  O_26
REMARK    5  A    between atoms: C_15  and  O_18
REMARK    6  A    between atoms: C_17  and  O_20
REMARK                            x       y       z     vdW  Elec       q    Type
REMARK                         _______ _______ _______ _____ _____    ______ ____
ROOT
ATOM      1  O   UNL     1     -67.921 -56.975 -36.377  0.00  0.00    +0.000 OA
ATOM      2  O   UNL     1     -71.846 -56.320 -35.552  0.00  0.00    +0.000 OA
ATOM      3  C   UNL     1     -69.755 -57.015 -34.792  0.00  0.00    +0.000 A 
ATOM      4  C   UNL     1     -68.423 -57.225 -35.130  0.00  0.00    +0.000 A 
ATOM      5  C   UNL     1     -68.769 -56.473 -37.353  0.00  0.00    +0.000 A 
ATOM      6  C   UNL     1     -70.086 -56.233 -37.172  0.00  0.00    +0.000 A 
ATOM      7  C   UNL     1     -70.663 -56.504 -35.824  0.00  0.00    +0.000 A 
ATOM      8  C   UNL     1     -70.201 -57.295 -33.494  0.00  0.00    +0.000 A 
ATOM      9  C   UNL     1     -67.529 -57.713 -34.178  0.00  0.00    +0.000 A 
ATOM     10  C   UNL     1     -67.981 -57.986 -32.891  0.00  0.00    +0.000 A 
ATOM     11  C   UNL     1     -69.312 -57.782 -32.540  0.00  0.00    +0.000 A 
ENDROOT
BRANCH   5  12
ATOM     12  C   UNL     1     -68.070 -56.238 -38.625  0.00  0.00    +0.000 A 
ATOM     13  C   UNL     1     -67.576 -54.971 -38.951  0.00  0.00    +0.000 A 
ATOM     14  C   UNL     1     -67.839 -57.310 -39.497  0.00  0.00    +0.000 A 
ATOM     15  C   UNL     1     -66.886 -54.786 -40.142  0.00  0.00    +0.000 A 
ATOM     16  C   UNL     1     -67.131 -57.124 -40.683  0.00  0.00    +0.000 A 
ATOM     17  C   UNL     1     -66.644 -55.862 -40.990  0.00  0.00    +0.000 A 
BRANCH  15  18
ATOM     18  O   UNL     1     -66.484 -53.527 -40.479  0.00  0.00    +0.000 OA
ATOM     19  H   UNL     1     -67.238 -52.931 -40.309  0.00  0.00    +0.000 HD
ENDBRANCH  15  18
BRANCH  17  20
ATOM     20  O   UNL     1     -65.903 -55.694 -42.124  0.00  0.00    +0.000 OA
ATOM     21  H   UNL     1     -66.174 -54.840 -42.509  0.00  0.00    +0.000 HD
ENDBRANCH  17  20
ENDBRANCH   5  12
BRANCH   6  22
ATOM     22  O   UNL     1     -70.955 -55.771 -38.141  0.00  0.00    +0.000 OA
ATOM     23  H   UNL     1     -71.625 -55.193 -37.743  0.00  0.00    +0.000 HD
ENDBRANCH   6  22
BRANCH   8  24
ATOM     24  O   UNL     1     -71.497 -57.114 -33.093  0.00  0.00    +0.000 OA
ATOM     25  H   UNL     1     -71.627 -56.159 -32.889  0.00  0.00    +0.000 HD
ENDBRANCH   8  24
BRANCH  10  26
ATOM     26  O   UNL     1     -67.087 -58.463 -31.977  0.00  0.00    +0.000 OA
ATOM     27  H   UNL     1     -66.276 -57.928 -32.040  0.00  0.00    +0.000 HD
ENDBRANCH  10  26
TORSDOF 6
ENDMDL
MODEL 5
REMARK VINA RESULT:      -5.2     14.965     18.000
REMARK  Name = Quercetin.pdbqt.pdb
REMARK  6 active torsions:
REMARK  status: ('A' for Active; 'I' for Inactive)
REMARK    1  A    between atoms: C_5  and  C_12
REMARK    2  A    between atoms: C_6  and  O_22
REMARK    3  A    between atoms: C_8  and  O_24
REMARK    4  A    between atoms: C_10  and  O_26
REMARK    5  A    between atoms: C_15  and  O_18
REMARK    6  A    between atoms: C_17  and  O_20
REMARK                            x       y       z     vdW  Elec       q    Type
REMARK                         _______ _______ _______ _____ _____    ______ ____
ROOT
ATOM      1  O   UNL     1     -62.552 -54.534 -20.799  0.00  0.00    +0.000 OA
ATOM      2  O   UNL     1     -62.538 -50.629 -21.926  0.00  0.00    +0.000 OA
ATOM      3  C   UNL     1     -62.054 -52.845 -22.465  0.00  0.00    +0.000 A 
ATOM      4  C   UNL     1     -62.078 -54.164 -22.028  0.00  0.00    +0.000 A 
ATOM      5  C   UNL     1     -63.048 -53.557 -19.949  0.00  0.00    +0.000 A 
ATOM      6  C   UNL     1     -63.075 -52.237 -20.236  0.00  0.00    +0.000 A 
ATOM      7  C   UNL     1     -62.558 -51.803 -21.565  0.00  0.00    +0.000 A 
ATOM      8  C   UNL     1     -61.554 -52.538 -23.737  0.00  0.00    +0.000 A 
ATOM      9  C   UNL     1     -61.606 -55.183 -22.853  0.00  0.00    +0.000 A 
ATOM     10  C   UNL     1     -61.111 -54.868 -24.115  0.00  0.00    +0.000 A 
ATOM     11  C   UNL     1     -61.081 -53.553 -24.565  0.00  0.00    +0.000 A 
ENDROOT
BRANCH   5  12
ATOM     12  C   UNL     1     -63.537 -54.122 -18.684  0.00  0.00    +0.000 A 
ATOM     13  C   UNL     1     -62.671 -54.786 -17.810  0.00  0.00    +0.000 A 
ATOM     14  C   UNL     1     -64.877 -53.942 -18.316  0.00  0.00    +0.000 A 
ATOM     15  C   UNL     1     -63.152 -55.278 -16.603  0.00  0.00    +0.000 A 
ATOM     16  C   UNL     1     -65.353 -54.422 -17.097  0.00  0.00    +0.000 A 
ATOM     17  C   UNL     1     -64.479 -55.074 -16.239  0.00  0.00    +0.000 A 
BRANCH  15  18
ATOM     18  O   UNL     1     -62.310 -55.993 -15.803  0.00  0.00    +0.000 OA
ATOM     19  H   UNL     1     -62.717 -56.028 -14.918  0.00  0.00    +0.000 HD
ENDBRANCH  15  18
BRANCH  17  20
ATOM     20  O   UNL     1     -64.933 -55.493 -15.023  0.00  0.00    +0.000 OA
ATOM     21  H   UNL     1     -65.629 -56.153 -15.198  0.00  0.00    +0.000 HD
ENDBRANCH  17  20
ENDBRANCH   5  12
BRANCH   6  22
ATOM     22  O   UNL     1     -63.529 -51.244 -19.388  0.00  0.00    +0.000 OA
ATOM     23  H   UNL     1     -62.846 -51.024 -18.735  0.00  0.00    +0.000 HD
ENDBRANCH   6  22
BRANCH   8  24
ATOM     24  O   UNL     1     -61.497 -51.263 -24.231  0.00  0.00    +0.000 OA
ATOM     25  H   UNL     1     -60.647 -51.157 -24.718  0.00  0.00    +0.000 HD
ENDBRANCH   8  24
BRANCH  10  26
ATOM     26  O   UNL     1     -60.654 -55.883 -24.904  0.00  0.00    +0.000 OA
ATOM     27  H   UNL     1     -61.179 -56.680 -24.708  0.00  0.00    +0.000 HD
ENDBRANCH  10  26
TORSDOF 6
ENDMDL
MODEL 6
REMARK VINA RESULT:      -5.2     17.882     22.071
REMARK  Name = Quercetin.pdbqt.pdb
REMARK  6 active torsions:
REMARK  status: ('A' for Active; 'I' for Inactive)
REMARK    1  A    between atoms: C_5  and  C_12
REMARK    2  A    between atoms: C_6  and  O_22
REMARK    3  A    between atoms: C_8  and  O_24
REMARK    4  A    between atoms: C_10  and  O_26
REMARK    5  A    between atoms: C_15  and  O_18
REMARK    6  A    between atoms: C_17  and  O_20
REMARK                            x       y       z     vdW  Elec       q    Type
REMARK                         _______ _______ _______ _____ _____    ______ ____
ROOT
ATOM      1  O   UNL     1     -63.156 -46.644 -56.153  0.00  0.00    +0.000 OA
ATOM      2  O   UNL     1     -66.664 -45.959 -58.090  0.00  0.00    +0.000 OA
ATOM      3  C   UNL     1     -64.369 -46.346 -58.232  0.00  0.00    +0.000 A 
ATOM      4  C   UNL     1     -63.197 -46.574 -57.519  0.00  0.00    +0.000 A 
ATOM      5  C   UNL     1     -64.336 -46.500 -55.439  0.00  0.00    +0.000 A 
ATOM      6  C   UNL     1     -65.543 -46.262 -55.996  0.00  0.00    +0.000 A 
ATOM      7  C   UNL     1     -65.617 -46.172 -57.482  0.00  0.00    +0.000 A 
ATOM      8  C   UNL     1     -64.337 -46.285 -59.631  0.00  0.00    +0.000 A 
ATOM      9  C   UNL     1     -61.990 -46.742 -58.194  0.00  0.00    +0.000 A 
ATOM     10  C   UNL     1     -61.968 -46.680 -59.584  0.00  0.00    +0.000 A 
ATOM     11  C   UNL     1     -63.133 -46.452 -60.309  0.00  0.00    +0.000 A 
ENDROOT
BRANCH   5  12
ATOM     12  C   UNL     1     -64.123 -46.625 -53.990  0.00  0.00    +0.000 A 
ATOM     13  C   UNL     1     -63.707 -45.530 -53.226  0.00  0.00    +0.000 A 
ATOM     14  C   UNL     1     -64.398 -47.841 -53.351  0.00  0.00    +0.000 A 
ATOM     15  C   UNL     1     -63.548 -45.667 -51.853  0.00  0.00    +0.000 A 
ATOM     16  C   UNL     1     -64.255 -47.971 -51.971  0.00  0.00    +0.000 A 
ATOM     17  C   UNL     1     -63.845 -46.873 -51.227  0.00  0.00    +0.000 A 
BRANCH  15  18
ATOM     18  O   UNL     1     -63.063 -44.610 -51.140  0.00  0.00    +0.000 OA
ATOM     19  H   UNL     1     -62.622 -44.015 -51.774  0.00  0.00    +0.000 HD
ENDBRANCH  15  18
BRANCH  17  20
ATOM     20  O   UNL     1     -63.760 -46.985 -49.870  0.00  0.00    +0.000 OA
ATOM     21  H   UNL     1     -64.546 -46.539 -49.505  0.00  0.00    +0.000 HD
ENDBRANCH  17  20
ENDBRANCH   5  12
BRANCH   6  22
ATOM     22  O   UNL     1     -66.723 -46.075 -55.300  0.00  0.00    +0.000 OA
ATOM     23  H   UNL     1     -67.464 -45.974 -55.918  0.00  0.00    +0.000 HD
ENDBRANCH   6  22
BRANCH   8  24
ATOM     24  O   UNL     1     -65.450 -46.062 -60.395  0.00  0.00    +0.000 OA
ATOM     25  H   UNL     1     -65.281 -46.419 -61.298  0.00  0.00    +0.000 HD
ENDBRANCH   8  24
BRANCH  10  26
ATOM     26  O   UNL     1     -60.774 -46.848 -60.222  0.00  0.00    +0.000 OA
ATOM     27  H   UNL     1     -60.577 -47.801 -60.251  0.00  0.00    +0.000 HD
ENDBRANCH  10  26
TORSDOF 6
ENDMDL
MODEL 7
REMARK VINA RESULT:      -5.1     20.982     24.673
REMARK  Name = Quercetin.pdbqt.pdb
REMARK  6 active torsions:
REMARK  status: ('A' for Active; 'I' for Inactive)
REMARK    1  A    between atoms: C_5  and  C_12
REMARK    2  A    between atoms: C_6  and  O_22
REMARK    3  A    between atoms: C_8  and  O_24
REMARK    4  A    between atoms: C_10  and  O_26
REMARK    5  A    between atoms: C_15  and  O_18
REMARK    6  A    between atoms: C_17  and  O_20
REMARK                            x       y       z     vdW  Elec       q    Type
REMARK                         _______ _______ _______ _____ _____    ______ ____
ROOT
ATOM      1  O   UNL     1     -66.158 -47.947 -58.322  0.00  0.00    +0.000 OA
ATOM      2  O   UNL     1     -69.111 -45.500 -59.669  0.00  0.00    +0.000 OA
ATOM      3  C   UNL     1     -68.504 -47.335 -58.366  0.00  0.00    +0.000 A 
ATOM      4  C   UNL     1     -67.457 -48.144 -57.939  0.00  0.00    +0.000 A 
ATOM      5  C   UNL     1     -65.860 -46.885 -59.163  0.00  0.00    +0.000 A 
ATOM      6  C   UNL     1     -66.776 -46.028 -59.665  0.00  0.00    +0.000 A 
ATOM      7  C   UNL     1     -68.200 -46.222 -59.271  0.00  0.00    +0.000 A 
ATOM      8  C   UNL     1     -69.810 -47.596 -57.934  0.00  0.00    +0.000 A 
ATOM      9  C   UNL     1     -67.704 -49.213 -57.081  0.00  0.00    +0.000 A 
ATOM     10  C   UNL     1     -69.006 -49.463 -56.656  0.00  0.00    +0.000 A 
ATOM     11  C   UNL     1     -70.062 -48.663 -57.077  0.00  0.00    +0.000 A 
ENDROOT
BRANCH   5  12
ATOM     12  C   UNL     1     -64.423 -46.801 -59.458  0.00  0.00    +0.000 A 
ATOM     13  C   UNL     1     -63.516 -46.350 -58.494  0.00  0.00    +0.000 A 
ATOM     14  C   UNL     1     -63.944 -47.235 -60.700  0.00  0.00    +0.000 A 
ATOM     15  C   UNL     1     -62.158 -46.316 -58.787  0.00  0.00    +0.000 A 
ATOM     16  C   UNL     1     -62.579 -47.216 -60.985  0.00  0.00    +0.000 A 
ATOM     17  C   UNL     1     -61.692 -46.770 -60.016  0.00  0.00    +0.000 A 
BRANCH  15  18
ATOM     18  O   UNL     1     -61.300 -45.797 -57.863  0.00  0.00    +0.000 OA
ATOM     19  H   UNL     1     -61.780 -45.090 -57.391  0.00  0.00    +0.000 HD
ENDBRANCH  15  18
BRANCH  17  20
ATOM     20  O   UNL     1     -60.353 -46.805 -60.276  0.00  0.00    +0.000 OA
ATOM     21  H   UNL     1     -59.967 -46.015 -59.854  0.00  0.00    +0.000 HD
ENDBRANCH  17  20
ENDBRANCH   5  12
BRANCH   6  22
ATOM     22  O   UNL     1     -66.505 -44.988 -60.534  0.00  0.00    +0.000 OA
ATOM     23  H   UNL     1     -67.234 -44.879 -61.164  0.00  0.00    +0.000 HD
ENDBRANCH   6  22
BRANCH   8  24
ATOM     24  O   UNL     1     -70.888 -46.843 -58.316  0.00  0.00    +0.000 OA
ATOM     25  H   UNL     1     -70.592 -45.909 -58.418  0.00  0.00    +0.000 HD
ENDBRANCH   8  24
BRANCH  10  26
ATOM     26  O   UNL     1     -69.223 -50.516 -55.817  0.00  0.00    +0.000 OA
ATOM     27  H   UNL     1     -69.102 -50.205 -54.902  0.00  0.00    +0.000 HD
ENDBRANCH  10  26
TORSDOF 6
ENDMDL
MODEL 8
REMARK VINA RESULT:      -5.1     18.881     21.426
REMARK  Name = Quercetin.pdbqt.pdb
REMARK  6 active torsions:
REMARK  status: ('A' for Active; 'I' for Inactive)
REMARK    1  A    between atoms: C_5  and  C_12
REMARK    2  A    between atoms: C_6  and  O_22
REMARK    3  A    between atoms: C_8  and  O_24
REMARK    4  A    between atoms: C_10  and  O_26
REMARK    5  A    between atoms: C_15  and  O_18
REMARK    6  A    between atoms: C_17  and  O_20
REMARK                            x       y       z     vdW  Elec       q    Type
REMARK                         _______ _______ _______ _____ _____    ______ ____
ROOT
ATOM      1  O   UNL     1     -64.853 -55.405 -16.178  0.00  0.00    +0.000 OA
ATOM      2  O   UNL     1     -61.485 -55.300 -18.451  0.00  0.00    +0.000 OA
ATOM      3  C   UNL     1     -63.604 -54.433 -18.015  0.00  0.00    +0.000 A 
ATOM      4  C   UNL     1     -64.734 -54.514 -17.209  0.00  0.00    +0.000 A 
ATOM      5  C   UNL     1     -63.795 -56.260 -15.906  0.00  0.00    +0.000 A 
ATOM      6  C   UNL     1     -62.644 -56.301 -16.611  0.00  0.00    +0.000 A 
ATOM      7  C   UNL     1     -62.490 -55.347 -17.746  0.00  0.00    +0.000 A 
ATOM      8  C   UNL     1     -63.552 -53.496 -19.055  0.00  0.00    +0.000 A 
ATOM      9  C   UNL     1     -65.816 -53.665 -17.434  0.00  0.00    +0.000 A 
ATOM     10  C   UNL     1     -65.754 -52.737 -18.469  0.00  0.00    +0.000 A 
ATOM     11  C   UNL     1     -64.630 -52.645 -19.283  0.00  0.00    +0.000 A 
ENDROOT
BRANCH   5  12
ATOM     12  C   UNL     1     -64.073 -57.134 -14.757  0.00  0.00    +0.000 A 
ATOM     13  C   UNL     1     -64.664 -58.389 -14.933  0.00  0.00    +0.000 A 
ATOM     14  C   UNL     1     -63.687 -56.732 -13.471  0.00  0.00    +0.000 A 
ATOM     15  C   UNL     1     -64.882 -59.209 -13.834  0.00  0.00    +0.000 A 
ATOM     16  C   UNL     1     -63.892 -57.565 -12.372  0.00  0.00    +0.000 A 
ATOM     17  C   UNL     1     -64.474 -58.810 -12.566  0.00  0.00    +0.000 A 
BRANCH  15  18
ATOM     18  O   UNL     1     -65.533 -60.394 -14.017  0.00  0.00    +0.000 OA
ATOM     19  H   UNL     1     -66.023 -60.323 -14.858  0.00  0.00    +0.000 HD
ENDBRANCH  15  18
BRANCH  17  20
ATOM     20  O   UNL     1     -64.622 -59.646 -11.498  0.00  0.00    +0.000 OA
ATOM     21  H   UNL     1     -64.074 -59.278 -10.779  0.00  0.00    +0.000 HD
ENDBRANCH  17  20
ENDBRANCH   5  12
BRANCH   6  22
ATOM     22  O   UNL     1     -61.596 -57.172 -16.381  0.00  0.00    +0.000 OA
ATOM     23  H   UNL     1     -61.396 -57.213 -15.432  0.00  0.00    +0.000 HD
ENDBRANCH   6  22
BRANCH   8  24
ATOM     24  O   UNL     1     -62.474 -53.362 -19.888  0.00  0.00    +0.000 OA
ATOM     25  H   UNL     1     -62.641 -52.600 -20.490  0.00  0.00    +0.000 HD
ENDBRANCH   8  24
BRANCH  10  26
ATOM     26  O   UNL     1     -66.826 -51.916 -18.669  0.00  0.00    +0.000 OA
ATOM     27  H   UNL     1     -66.966 -51.830 -19.629  0.00  0.00    +0.000 HD
ENDBRANCH  10  26
TORSDOF 6
ENDMDL
MODEL 9
REMARK VINA RESULT:      -4.9     20.088     22.173
REMARK  Name = Quercetin.pdbqt.pdb
REMARK  6 active torsions:
REMARK  status: ('A' for Active; 'I' for Inactive)
REMARK    1  A    between atoms: C_5  and  C_12
REMARK    2  A    between atoms: C_6  and  O_22
REMARK    3  A    between atoms: C_8  and  O_24
REMARK    4  A    between atoms: C_10  and  O_26
REMARK    5  A    between atoms: C_15  and  O_18
REMARK    6  A    between atoms: C_17  and  O_20
REMARK                            x       y       z     vdW  Elec       q    Type
REMARK                         _______ _______ _______ _____ _____    ______ ____
ROOT
ATOM      1  O   UNL     1     -64.874 -56.484 -15.432  0.00  0.00    +0.000 OA
ATOM      2  O   UNL     1     -61.447 -56.433 -17.617  0.00  0.00    +0.000 OA
ATOM      3  C   UNL     1     -63.435 -55.366 -17.031  0.00  0.00    +0.000 A 
ATOM      4  C   UNL     1     -64.593 -55.436 -16.265  0.00  0.00    +0.000 A 
ATOM      5  C   UNL     1     -63.959 -57.522 -15.327  0.00  0.00    +0.000 A 
ATOM      6  C   UNL     1     -62.802 -57.593 -16.020  0.00  0.00    +0.000 A 
ATOM      7  C   UNL     1     -62.473 -56.469 -16.942  0.00  0.00    +0.000 A 
ATOM      8  C   UNL     1     -63.213 -54.262 -17.865  0.00  0.00    +0.000 A 
ATOM      9  C   UNL     1     -65.534 -54.410 -16.324  0.00  0.00    +0.000 A 
ATOM     10  C   UNL     1     -65.304 -53.317 -17.154  0.00  0.00    +0.000 A 
ATOM     11  C   UNL     1     -64.150 -53.235 -17.927  0.00  0.00    +0.000 A 
ENDROOT
BRANCH   5  12
ATOM     12  C   UNL     1     -64.400 -58.552 -14.376  0.00  0.00    +0.000 A 
ATOM     13  C   UNL     1     -64.298 -58.348 -12.997  0.00  0.00    +0.000 A 
ATOM     14  C   UNL     1     -64.987 -59.731 -14.854  0.00  0.00    +0.000 A 
ATOM     15  C   UNL     1     -64.757 -59.324 -12.120  0.00  0.00    +0.000 A 
ATOM     16  C   UNL     1     -65.462 -60.700 -13.972  0.00  0.00    +0.000 A 
ATOM     17  C   UNL     1     -65.358 -60.480 -12.605  0.00  0.00    +0.000 A 
BRANCH  15  18
ATOM     18  O   UNL     1     -64.574 -59.141 -10.781  0.00  0.00    +0.000 OA
ATOM     19  H   UNL     1     -65.459 -59.126 -10.370  0.00  0.00    +0.000 HD
ENDBRANCH  15  18
BRANCH  17  20
ATOM     20  O   UNL     1     -65.874 -61.404 -11.744  0.00  0.00    +0.000 OA
ATOM     21  H   UNL     1     -66.736 -61.057 -11.449  0.00  0.00    +0.000 HD
ENDBRANCH  17  20
ENDBRANCH   5  12
BRANCH   6  22
ATOM     22  O   UNL     1     -61.897 -58.636 -15.960  0.00  0.00    +0.000 OA
ATOM     23  H   UNL     1     -61.462 -58.752 -16.819  0.00  0.00    +0.000 HD
ENDBRANCH   6  22
BRANCH   8  24
ATOM     24  O   UNL     1     -62.099 -54.128 -18.647  0.00  0.00    +0.000 OA
ATOM     25  H   UNL     1     -61.422 -53.623 -18.138  0.00  0.00    +0.000 HD
ENDBRANCH   8  24
BRANCH  10  26
ATOM     26  O   UNL     1     -66.240 -52.325 -17.195  0.00  0.00    +0.000 OA
ATOM     27  H   UNL     1     -65.789 -51.492 -17.421  0.00  0.00    +0.000 HD
ENDBRANCH  10  26
TORSDOF 6
ENDMDL
