MODEL 1
REMARK VINA RESULT:      -6.3      0.000      0.000
REMARK  Name = 
REMARK  11 active torsions:
REMARK  status: ('A' for Active; 'I' for Inactive)
REMARK    1  A    between atoms: O_2  and  C_16
REMARK    2  A    between atoms: O_2  and  C_18
REMARK    3  A    between atoms: O_3  and  C_12
REMARK    4  A    between atoms: O_4  and  C_13
REMARK    5  A    between atoms: O_5  and  C_14
REMARK    6  A    between atoms: O_8  and  C_24
REMARK    7  A    between atoms: O_9  and  C_29
REMARK    8  A    between atoms: O_10  and  C_30
REMARK    9  A    between atoms: O_11  and  C_32
REMARK   10  A    between atoms: C_15  and  C_17
REMARK   11  A    between atoms: C_19  and  C_23
REMARK                            x       y       z     vdW  Elec       q    Type
REMARK                         _______ _______ _______ _____ _____    ______ ____
ROOT
ATOM      1  O   UNL     1     -68.167 -56.037 -37.202  0.00  0.00    +0.000 OA
ATOM      2  O   UNL     1     -68.533 -59.383 -39.468  0.00  0.00    +0.000 OA
ATOM      3  C   UNL     1     -68.552 -58.419 -37.312  0.00  0.00    +0.000 A 
ATOM      4  C   UNL     1     -68.523 -57.250 -36.642  0.00  0.00    +0.000 A 
ATOM      5  C   UNL     1     -68.296 -58.396 -38.781  0.00  0.00    +0.000 A 
ATOM      6  C   UNL     1     -67.785 -57.126 -39.346  0.00  0.00    +0.000 A 
ATOM      7  C   UNL     1     -67.764 -56.009 -38.511  0.00  0.00    +0.000 A 
ATOM      8  C   UNL     1     -67.342 -56.995 -40.670  0.00  0.00    +0.000 A 
ATOM      9  C   UNL     1     -67.318 -54.774 -38.987  0.00  0.00    +0.000 A 
ATOM     10  C   UNL     1     -66.891 -55.761 -41.151  0.00  0.00    +0.000 A 
ATOM     11  C   UNL     1     -66.887 -54.660 -40.301  0.00  0.00    +0.000 A 
ENDROOT
BRANCH   4  12
ATOM     12  C   UNL     1     -68.846 -57.143 -35.204  0.00  0.00    +0.000 A 
ATOM     13  C   UNL     1     -67.900 -57.553 -34.248  0.00  0.00    +0.000 A 
ATOM     14  C   UNL     1     -70.081 -56.630 -34.769  0.00  0.00    +0.000 A 
ATOM     15  C   UNL     1     -68.209 -57.471 -32.895  0.00  0.00    +0.000 A 
ATOM     16  C   UNL     1     -70.384 -56.555 -33.408  0.00  0.00    +0.000 A 
ATOM     17  C   UNL     1     -69.445 -56.982 -32.483  0.00  0.00    +0.000 A 
BRANCH  15  18
ATOM     18  O   UNL     1     -67.328 -57.867 -31.926  0.00  0.00    +0.000 OA
ATOM     19  H   UNL     1     -67.796 -58.448 -31.302  0.00  0.00    +0.000 HD
ENDBRANCH  15  18
BRANCH  17  20
ATOM     20  O   UNL     1     -69.743 -56.913 -31.153  0.00  0.00    +0.000 OA
ATOM     21  H   UNL     1     -69.718 -57.841 -30.843  0.00  0.00    +0.000 HD
ENDBRANCH  17  20
ENDBRANCH   4  12
BRANCH   8  22
ATOM     22  O   UNL     1     -67.319 -58.072 -41.509  0.00  0.00    +0.000 OA
ATOM     23  H   UNL     1     -66.461 -58.523 -41.477  0.00  0.00    +0.000 HD
ENDBRANCH   8  22
BRANCH  11  24
ATOM     24  O   UNL     1     -66.459 -53.436 -40.720  0.00  0.00    +0.000 OA
ATOM     25  H   UNL     1     -66.181 -52.909 -39.953  0.00  0.00    +0.000 HD
ENDBRANCH  11  24
BRANCH   3  26
ATOM     26  O   UNL     1     -68.909 -59.630 -36.738  0.00  0.00    +0.000 OA
BRANCH  26  32
ATOM     27  O   UNL     1     -67.142 -61.221 -37.022  0.00  0.00    +0.000 OA
ATOM     28  C   UNL     1     -69.057 -62.203 -35.104  0.00  0.00    +0.000 C 
ATOM     29  C   UNL     1     -68.328 -63.140 -36.073  0.00  0.00    +0.000 C 
ATOM     30  C   UNL     1     -68.226 -60.951 -34.822  0.00  0.00    +0.000 C 
ATOM     31  C   UNL     1     -67.953 -62.363 -37.340  0.00  0.00    +0.000 C 
ATOM     32  C   UNL     1     -67.781 -60.289 -36.145  0.00  0.00    +0.000 C 
ATOM     33  C   UNL     1     -67.158 -63.226 -38.314  0.00  0.00    +0.000 C 
BRANCH  28  34
ATOM     34  O   UNL     1     -69.303 -62.917 -33.877  0.00  0.00    +0.000 OA
ATOM     35  H   UNL     1     -68.429 -63.278 -33.618  0.00  0.00    +0.000 HD
ENDBRANCH  28  34
BRANCH  29  36
ATOM     36  O   UNL     1     -69.175 -64.255 -36.369  0.00  0.00    +0.000 OA
ATOM     37  H   UNL     1     -68.641 -65.048 -36.165  0.00  0.00    +0.000 HD
ENDBRANCH  29  36
BRANCH  30  38
ATOM     38  O   UNL     1     -67.101 -61.353 -34.010  0.00  0.00    +0.000 OA
ATOM     39  H   UNL     1     -66.970 -60.664 -33.334  0.00  0.00    +0.000 HD
ENDBRANCH  30  38
ENDBRANCH  26  32
ENDBRANCH   3  26
TORSDOF 10
ENDMDL
MODEL 2
REMARK VINA RESULT:      -6.1     33.883     38.106
REMARK  Name = 
REMARK  11 active torsions:
REMARK  status: ('A' for Active; 'I' for Inactive)
REMARK    1  A    between atoms: O_2  and  C_16
REMARK    2  A    between atoms: O_2  and  C_18
REMARK    3  A    between atoms: O_3  and  C_12
REMARK    4  A    between atoms: O_4  and  C_13
REMARK    5  A    between atoms: O_5  and  C_14
REMARK    6  A    between atoms: O_8  and  C_24
REMARK    7  A    between atoms: O_9  and  C_29
REMARK    8  A    between atoms: O_10  and  C_30
REMARK    9  A    between atoms: O_11  and  C_32
REMARK   10  A    between atoms: C_15  and  C_17
REMARK   11  A    between atoms: C_19  and  C_23
REMARK                            x       y       z     vdW  Elec       q    Type
REMARK                         _______ _______ _______ _____ _____    ______ ____
ROOT
ATOM      1  O   UNL     1     -64.741 -60.815 -76.105  0.00  0.00    +0.000 OA
ATOM      2  O   UNL     1     -68.039 -58.465 -76.365  0.00  0.00    +0.000 OA
ATOM      3  C   UNL     1     -66.915 -60.211 -75.241  0.00  0.00    +0.000 A 
ATOM      4  C   UNL     1     -65.746 -60.877 -75.157  0.00  0.00    +0.000 A 
ATOM      5  C   UNL     1     -67.102 -59.254 -76.370  0.00  0.00    +0.000 A 
ATOM      6  C   UNL     1     -66.088 -59.293 -77.448  0.00  0.00    +0.000 A 
ATOM      7  C   UNL     1     -64.950 -60.074 -77.238  0.00  0.00    +0.000 A 
ATOM      8  C   UNL     1     -66.210 -58.578 -78.647  0.00  0.00    +0.000 A 
ATOM      9  C   UNL     1     -63.942 -60.135 -78.203  0.00  0.00    +0.000 A 
ATOM     10  C   UNL     1     -65.205 -58.638 -79.619  0.00  0.00    +0.000 A 
ATOM     11  C   UNL     1     -64.077 -59.418 -79.383  0.00  0.00    +0.000 A 
ENDROOT
BRANCH   4  12
ATOM     12  C   UNL     1     -65.419 -61.784 -74.037  0.00  0.00    +0.000 A 
ATOM     13  C   UNL     1     -64.678 -61.300 -72.945  0.00  0.00    +0.000 A 
ATOM     14  C   UNL     1     -65.843 -63.125 -74.037  0.00  0.00    +0.000 A 
ATOM     15  C   UNL     1     -64.353 -62.156 -71.899  0.00  0.00    +0.000 A 
ATOM     16  C   UNL     1     -65.509 -63.979 -72.983  0.00  0.00    +0.000 A 
ATOM     17  C   UNL     1     -64.762 -63.486 -71.926  0.00  0.00    +0.000 A 
BRANCH  15  18
ATOM     18  O   UNL     1     -63.626 -61.737 -70.819  0.00  0.00    +0.000 OA
ATOM     19  H   UNL     1     -62.769 -61.404 -71.136  0.00  0.00    +0.000 HD
ENDBRANCH  15  18
BRANCH  17  20
ATOM     20  O   UNL     1     -64.432 -64.323 -70.899  0.00  0.00    +0.000 OA
ATOM     21  H   UNL     1     -64.430 -63.753 -70.103  0.00  0.00    +0.000 HD
ENDBRANCH  17  20
ENDBRANCH   4  12
BRANCH   8  22
ATOM     22  O   UNL     1     -67.322 -57.827 -78.902  0.00  0.00    +0.000 OA
ATOM     23  H   UNL     1     -67.989 -57.942 -78.207  0.00  0.00    +0.000 HD
ENDBRANCH   8  22
BRANCH  11  24
ATOM     24  O   UNL     1     -63.070 -59.510 -80.296  0.00  0.00    +0.000 OA
ATOM     25  H   UNL     1     -63.380 -60.006 -81.072  0.00  0.00    +0.000 HD
ENDBRANCH  11  24
BRANCH   3  26
ATOM     26  O   UNL     1     -67.916 -60.284 -74.284  0.00  0.00    +0.000 OA
BRANCH  26  32
ATOM     27  O   UNL     1     -67.231 -59.654 -72.077  0.00  0.00    +0.000 OA
ATOM     28  C   UNL     1     -70.101 -59.493 -72.306  0.00  0.00    +0.000 C 
ATOM     29  C   UNL     1     -69.416 -59.935 -71.008  0.00  0.00    +0.000 C 
ATOM     30  C   UNL     1     -69.189 -58.576 -73.123  0.00  0.00    +0.000 C 
ATOM     31  C   UNL     1     -68.061 -60.569 -71.343  0.00  0.00    +0.000 C 
ATOM     32  C   UNL     1     -67.802 -59.229 -73.317  0.00  0.00    +0.000 C 
ATOM     33  C   UNL     1     -67.297 -60.964 -70.084  0.00  0.00    +0.000 C 
BRANCH  28  34
ATOM     34  O   UNL     1     -71.318 -58.801 -71.966  0.00  0.00    +0.000 OA
ATOM     35  H   UNL     1     -72.025 -59.294 -72.432  0.00  0.00    +0.000 HD
ENDBRANCH  28  34
BRANCH  29  36
ATOM     36  O   UNL     1     -70.271 -60.851 -70.318  0.00  0.00    +0.000 OA
ATOM     37  H   UNL     1     -69.677 -61.386 -69.754  0.00  0.00    +0.000 HD
ENDBRANCH  29  36
BRANCH  30  38
ATOM     38  O   UNL     1     -69.104 -57.316 -72.422  0.00  0.00    +0.000 OA
ATOM     39  H   UNL     1     -69.280 -56.611 -73.072  0.00  0.00    +0.000 HD
ENDBRANCH  30  38
ENDBRANCH  26  32
ENDBRANCH   3  26
TORSDOF 10
ENDMDL
MODEL 3
REMARK VINA RESULT:      -6.0      1.153      2.374
REMARK  Name = 
REMARK  11 active torsions:
REMARK  status: ('A' for Active; 'I' for Inactive)
REMARK    1  A    between atoms: O_2  and  C_16
REMARK    2  A    between atoms: O_2  and  C_18
REMARK    3  A    between atoms: O_3  and  C_12
REMARK    4  A    between atoms: O_4  and  C_13
REMARK    5  A    between atoms: O_5  and  C_14
REMARK    6  A    between atoms: O_8  and  C_24
REMARK    7  A    between atoms: O_9  and  C_29
REMARK    8  A    between atoms: O_10  and  C_30
REMARK    9  A    between atoms: O_11  and  C_32
REMARK   10  A    between atoms: C_15  and  C_17
REMARK   11  A    between atoms: C_19  and  C_23
REMARK                            x       y       z     vdW  Elec       q    Type
REMARK                         _______ _______ _______ _____ _____    ______ ____
ROOT
ATOM      1  O   UNL     1     -67.900 -56.074 -37.339  0.00  0.00    +0.000 OA
ATOM      2  O   UNL     1     -67.931 -59.418 -39.637  0.00  0.00    +0.000 OA
ATOM      3  C   UNL     1     -67.976 -58.485 -37.468  0.00  0.00    +0.000 A 
ATOM      4  C   UNL     1     -68.069 -57.328 -36.783  0.00  0.00    +0.000 A 
ATOM      5  C   UNL     1     -67.793 -58.416 -38.947  0.00  0.00    +0.000 A 
ATOM      6  C   UNL     1     -67.479 -57.085 -39.515  0.00  0.00    +0.000 A 
ATOM      7  C   UNL     1     -67.565 -55.982 -38.665  0.00  0.00    +0.000 A 
ATOM      8  C   UNL     1     -67.119 -56.884 -40.855  0.00  0.00    +0.000 A 
ATOM      9  C   UNL     1     -67.307 -54.694 -39.141  0.00  0.00    +0.000 A 
ATOM     10  C   UNL     1     -66.856 -55.598 -41.337  0.00  0.00    +0.000 A 
ATOM     11  C   UNL     1     -66.956 -54.513 -40.472  0.00  0.00    +0.000 A 
ENDROOT
BRANCH   4  12
ATOM     12  C   UNL     1     -68.335 -57.277 -35.330  0.00  0.00    +0.000 A 
ATOM     13  C   UNL     1     -69.535 -56.714 -34.863  0.00  0.00    +0.000 A 
ATOM     14  C   UNL     1     -67.412 -57.790 -34.401  0.00  0.00    +0.000 A 
ATOM     15  C   UNL     1     -69.780 -56.648 -33.496  0.00  0.00    +0.000 A 
ATOM     16  C   UNL     1     -67.664 -57.715 -33.029  0.00  0.00    +0.000 A 
ATOM     17  C   UNL     1     -68.845 -57.140 -32.590  0.00  0.00    +0.000 A 
BRANCH  15  18
ATOM     18  O   UNL     1     -70.927 -56.101 -32.991  0.00  0.00    +0.000 OA
ATOM     19  H   UNL     1     -71.543 -56.823 -32.775  0.00  0.00    +0.000 HD
ENDBRANCH  15  18
BRANCH  17  20
ATOM     20  O   UNL     1     -69.089 -57.064 -31.249  0.00  0.00    +0.000 OA
ATOM     21  H   UNL     1     -70.052 -56.905 -31.178  0.00  0.00    +0.000 HD
ENDBRANCH  17  20
ENDBRANCH   4  12
BRANCH   8  22
ATOM     22  O   UNL     1     -66.995 -57.941 -41.710  0.00  0.00    +0.000 OA
ATOM     23  H   UNL     1     -67.199 -58.778 -41.265  0.00  0.00    +0.000 HD
ENDBRANCH   8  22
BRANCH  11  24
ATOM     24  O   UNL     1     -66.711 -53.240 -40.891  0.00  0.00    +0.000 OA
ATOM     25  H   UNL     1     -65.870 -52.931 -40.516  0.00  0.00    +0.000 HD
ENDBRANCH  11  24
BRANCH   3  26
ATOM     26  O   UNL     1     -68.145 -59.737 -36.897  0.00  0.00    +0.000 OA
BRANCH  26  32
ATOM     27  O   UNL     1     -70.257 -59.913 -35.780  0.00  0.00    +0.000 OA
ATOM     28  C   UNL     1     -69.120 -62.535 -36.163  0.00  0.00    +0.000 C 
ATOM     29  C   UNL     1     -69.937 -62.180 -34.915  0.00  0.00    +0.000 C 
ATOM     30  C   UNL     1     -69.537 -61.671 -37.354  0.00  0.00    +0.000 C 
ATOM     31  C   UNL     1     -69.818 -60.676 -34.645  0.00  0.00    +0.000 C 
ATOM     32  C   UNL     1     -69.510 -60.174 -36.972  0.00  0.00    +0.000 C 
ATOM     33  C   UNL     1     -70.670 -60.249 -33.455  0.00  0.00    +0.000 C 
BRANCH  28  34
ATOM     34  O   UNL     1     -69.332 -63.927 -36.466  0.00  0.00    +0.000 OA
ATOM     35  H   UNL     1     -69.099 -64.401 -35.640  0.00  0.00    +0.000 HD
ENDBRANCH  28  34
BRANCH  29  36
ATOM     36  O   UNL     1     -69.459 -62.954 -33.811  0.00  0.00    +0.000 OA
ATOM     37  H   UNL     1     -70.261 -63.259 -33.341  0.00  0.00    +0.000 HD
ENDBRANCH  29  36
BRANCH  30  38
ATOM     38  O   UNL     1     -70.852 -62.105 -37.763  0.00  0.00    +0.000 OA
ATOM     39  H   UNL     1     -70.735 -62.876 -38.347  0.00  0.00    +0.000 HD
ENDBRANCH  30  38
ENDBRANCH  26  32
ENDBRANCH   3  26
TORSDOF 10
ENDMDL
MODEL 4
REMARK VINA RESULT:      -5.6      3.163      8.263
REMARK  Name = 
REMARK  11 active torsions:
REMARK  status: ('A' for Active; 'I' for Inactive)
REMARK    1  A    between atoms: O_2  and  C_16
REMARK    2  A    between atoms: O_2  and  C_18
REMARK    3  A    between atoms: O_3  and  C_12
REMARK    4  A    between atoms: O_4  and  C_13
REMARK    5  A    between atoms: O_5  and  C_14
REMARK    6  A    between atoms: O_8  and  C_24
REMARK    7  A    between atoms: O_9  and  C_29
REMARK    8  A    between atoms: O_10  and  C_30
REMARK    9  A    between atoms: O_11  and  C_32
REMARK   10  A    between atoms: C_15  and  C_17
REMARK   11  A    between atoms: C_19  and  C_23
REMARK                            x       y       z     vdW  Elec       q    Type
REMARK                         _______ _______ _______ _____ _____    ______ ____
ROOT
ATOM      1  O   UNL     1     -67.982 -57.078 -36.391  0.00  0.00    +0.000 OA
ATOM      2  O   UNL     1     -71.975 -56.646 -35.810  0.00  0.00    +0.000 OA
ATOM      3  C   UNL     1     -70.110 -56.281 -37.212  0.00  0.00    +0.000 A 
ATOM      4  C   UNL     1     -68.801 -56.557 -37.376  0.00  0.00    +0.000 A 
ATOM      5  C   UNL     1     -70.755 -56.665 -35.923  0.00  0.00    +0.000 A 
ATOM      6  C   UNL     1     -69.852 -57.094 -34.831  0.00  0.00    +0.000 A 
ATOM      7  C   UNL     1     -68.505 -57.286 -35.142  0.00  0.00    +0.000 A 
ATOM      8  C   UNL     1     -70.286 -57.326 -33.518  0.00  0.00    +0.000 A 
ATOM      9  C   UNL     1     -67.604 -57.715 -34.166  0.00  0.00    +0.000 A 
ATOM     10  C   UNL     1     -69.387 -57.753 -32.535  0.00  0.00    +0.000 A 
ATOM     11  C   UNL     1     -68.051 -57.945 -32.872  0.00  0.00    +0.000 A 
ENDROOT
BRANCH   4  12
ATOM     12  C   UNL     1     -68.080 -56.299 -38.640  0.00  0.00    +0.000 A 
ATOM     13  C   UNL     1     -67.596 -55.008 -38.913  0.00  0.00    +0.000 A 
ATOM     14  C   UNL     1     -67.862 -57.325 -39.578  0.00  0.00    +0.000 A 
ATOM     15  C   UNL     1     -66.935 -54.758 -40.110  0.00  0.00    +0.000 A 
ATOM     16  C   UNL     1     -67.201 -57.064 -40.780  0.00  0.00    +0.000 A 
ATOM     17  C   UNL     1     -66.747 -55.780 -41.036  0.00  0.00    +0.000 A 
BRANCH  15  18
ATOM     18  O   UNL     1     -66.454 -53.518 -40.427  0.00  0.00    +0.000 OA
ATOM     19  H   UNL     1     -66.534 -52.948 -39.642  0.00  0.00    +0.000 HD
ENDBRANCH  15  18
BRANCH  17  20
ATOM     20  O   UNL     1     -66.105 -55.525 -42.213  0.00  0.00    +0.000 OA
ATOM     21  H   UNL     1     -66.090 -56.384 -42.682  0.00  0.00    +0.000 HD
ENDBRANCH  17  20
ENDBRANCH   4  12
BRANCH   8  22
ATOM     22  O   UNL     1     -71.590 -57.120 -33.167  0.00  0.00    +0.000 OA
ATOM     23  H   UNL     1     -72.192 -57.423 -33.864  0.00  0.00    +0.000 HD
ENDBRANCH   8  22
BRANCH  11  24
ATOM     24  O   UNL     1     -67.135 -58.360 -31.952  0.00  0.00    +0.000 OA
ATOM     25  H   UNL     1     -66.408 -58.820 -32.403  0.00  0.00    +0.000 HD
ENDBRANCH  11  24
BRANCH   3  26
ATOM     26  O   UNL     1     -70.920 -55.756 -38.208  0.00  0.00    +0.000 OA
BRANCH  26  32
ATOM     27  O   UNL     1     -72.875 -54.379 -38.088  0.00  0.00    +0.000 OA
ATOM     28  C   UNL     1     -71.014 -53.290 -40.003  0.00  0.00    +0.000 C 
ATOM     29  C   UNL     1     -72.531 -53.207 -40.209  0.00  0.00    +0.000 C 
ATOM     30  C   UNL     1     -70.667 -53.363 -38.515  0.00  0.00    +0.000 C 
ATOM     31  C   UNL     1     -73.204 -54.379 -39.486  0.00  0.00    +0.000 C 
ATOM     32  C   UNL     1     -71.473 -54.488 -37.827  0.00  0.00    +0.000 C 
ATOM     33  C   UNL     1     -74.723 -54.310 -39.595  0.00  0.00    +0.000 C 
BRANCH  28  34
ATOM     34  O   UNL     1     -70.409 -52.123 -40.593  0.00  0.00    +0.000 OA
ATOM     35  H   UNL     1     -69.882 -52.468 -41.344  0.00  0.00    +0.000 HD
ENDBRANCH  28  34
BRANCH  29  36
ATOM     36  O   UNL     1     -72.812 -53.222 -41.612  0.00  0.00    +0.000 OA
ATOM     37  H   UNL     1     -73.517 -53.889 -41.730  0.00  0.00    +0.000 HD
ENDBRANCH  29  36
BRANCH  30  38
ATOM     38  O   UNL     1     -70.945 -52.067 -37.943  0.00  0.00    +0.000 OA
ATOM     39  H   UNL     1     -71.085 -52.196 -36.987  0.00  0.00    +0.000 HD
ENDBRANCH  30  38
ENDBRANCH  26  32
ENDBRANCH   3  26
TORSDOF 10
ENDMDL
MODEL 5
REMARK VINA RESULT:      -5.5     19.411     25.468
REMARK  Name = 
REMARK  11 active torsions:
REMARK  status: ('A' for Active; 'I' for Inactive)
REMARK    1  A    between atoms: O_2  and  C_16
REMARK    2  A    between atoms: O_2  and  C_18
REMARK    3  A    between atoms: O_3  and  C_12
REMARK    4  A    between atoms: O_4  and  C_13
REMARK    5  A    between atoms: O_5  and  C_14
REMARK    6  A    between atoms: O_8  and  C_24
REMARK    7  A    between atoms: O_9  and  C_29
REMARK    8  A    between atoms: O_10  and  C_30
REMARK    9  A    between atoms: O_11  and  C_32
REMARK   10  A    between atoms: C_15  and  C_17
REMARK   11  A    between atoms: C_19  and  C_23
REMARK                            x       y       z     vdW  Elec       q    Type
REMARK                         _______ _______ _______ _____ _____    ______ ____
ROOT
ATOM      1  O   UNL     1     -65.609 -46.280 -55.045  0.00  0.00    +0.000 OA
ATOM      2  O   UNL     1     -62.164 -44.136 -55.116  0.00  0.00    +0.000 OA
ATOM      3  C   UNL     1     -63.865 -45.224 -56.341  0.00  0.00    +0.000 A 
ATOM      4  C   UNL     1     -65.059 -45.839 -56.235  0.00  0.00    +0.000 A 
ATOM      5  C   UNL     1     -63.130 -44.889 -55.087  0.00  0.00    +0.000 A 
ATOM      6  C   UNL     1     -63.653 -45.479 -53.834  0.00  0.00    +0.000 A 
ATOM      7  C   UNL     1     -64.882 -46.137 -53.892  0.00  0.00    +0.000 A 
ATOM      8  C   UNL     1     -62.984 -45.396 -52.605  0.00  0.00    +0.000 A 
ATOM      9  C   UNL     1     -65.446 -46.695 -52.742  0.00  0.00    +0.000 A 
ATOM     10  C   UNL     1     -63.542 -45.955 -51.450  0.00  0.00    +0.000 A 
ATOM     11  C   UNL     1     -64.772 -46.599 -51.532  0.00  0.00    +0.000 A 
ENDROOT
BRANCH   4  12
ATOM     12  C   UNL     1     -65.911 -46.141 -57.404  0.00  0.00    +0.000 A 
ATOM     13  C   UNL     1     -65.480 -47.085 -58.352  0.00  0.00    +0.000 A 
ATOM     14  C   UNL     1     -67.154 -45.507 -57.585  0.00  0.00    +0.000 A 
ATOM     15  C   UNL     1     -66.271 -47.357 -59.463  0.00  0.00    +0.000 A 
ATOM     16  C   UNL     1     -67.940 -45.783 -58.706  0.00  0.00    +0.000 A 
ATOM     17  C   UNL     1     -67.488 -46.704 -59.637  0.00  0.00    +0.000 A 
BRANCH  15  18
ATOM     18  O   UNL     1     -65.892 -48.259 -60.418  0.00  0.00    +0.000 OA
ATOM     19  H   UNL     1     -66.018 -49.156 -60.062  0.00  0.00    +0.000 HD
ENDBRANCH  15  18
BRANCH  17  20
ATOM     20  O   UNL     1     -68.254 -46.970 -60.735  0.00  0.00    +0.000 OA
ATOM     21  H   UNL     1     -68.323 -47.946 -60.761  0.00  0.00    +0.000 HD
ENDBRANCH  17  20
ENDBRANCH   4  12
BRANCH   8  22
ATOM     22  O   UNL     1     -61.766 -44.786 -52.513  0.00  0.00    +0.000 OA
ATOM     23  H   UNL     1     -61.707 -44.028 -53.115  0.00  0.00    +0.000 HD
ENDBRANCH   8  22
BRANCH  11  24
ATOM     24  O   UNL     1     -65.359 -47.160 -50.438  0.00  0.00    +0.000 OA
ATOM     25  H   UNL     1     -66.108 -46.610 -50.154  0.00  0.00    +0.000 HD
ENDBRANCH  11  24
BRANCH   3  26
ATOM     26  O   UNL     1     -63.324 -44.788 -57.541  0.00  0.00    +0.000 OA
BRANCH  26  32
ATOM     27  O   UNL     1     -60.937 -44.741 -57.725  0.00  0.00    +0.000 OA
ATOM     28  C   UNL     1     -62.125 -44.957 -60.343  0.00  0.00    +0.000 C 
ATOM     29  C   UNL     1     -60.843 -44.153 -60.099  0.00  0.00    +0.000 C 
ATOM     30  C   UNL     1     -62.276 -46.075 -59.311  0.00  0.00    +0.000 C 
ATOM     31  C   UNL     1     -60.830 -43.649 -58.652  0.00  0.00    +0.000 C 
ATOM     32  C   UNL     1     -62.132 -45.512 -57.879  0.00  0.00    +0.000 C 
ATOM     33  C   UNL     1     -59.541 -42.903 -58.327  0.00  0.00    +0.000 C 
BRANCH  28  34
ATOM     34  O   UNL     1     -62.068 -45.515 -61.670  0.00  0.00    +0.000 OA
ATOM     35  H   UNL     1     -62.985 -45.805 -61.859  0.00  0.00    +0.000 HD
ENDBRANCH  28  34
BRANCH  29  36
ATOM     36  O   UNL     1     -60.785 -43.073 -61.035  0.00  0.00    +0.000 OA
ATOM     37  H   UNL     1     -60.982 -43.472 -61.906  0.00  0.00    +0.000 HD
ENDBRANCH  29  36
BRANCH  30  38
ATOM     38  O   UNL     1     -61.275 -47.073 -59.606  0.00  0.00    +0.000 OA
ATOM     39  H   UNL     1     -60.864 -47.330 -58.761  0.00  0.00    +0.000 HD
ENDBRANCH  30  38
ENDBRANCH  26  32
ENDBRANCH   3  26
TORSDOF 10
ENDMDL
MODEL 6
REMARK VINA RESULT:      -5.4     27.777     32.006
REMARK  Name = 
REMARK  11 active torsions:
REMARK  status: ('A' for Active; 'I' for Inactive)
REMARK    1  A    between atoms: O_2  and  C_16
REMARK    2  A    between atoms: O_2  and  C_18
REMARK    3  A    between atoms: O_3  and  C_12
REMARK    4  A    between atoms: O_4  and  C_13
REMARK    5  A    between atoms: O_5  and  C_14
REMARK    6  A    between atoms: O_8  and  C_24
REMARK    7  A    between atoms: O_9  and  C_29
REMARK    8  A    between atoms: O_10  and  C_30
REMARK    9  A    between atoms: O_11  and  C_32
REMARK   10  A    between atoms: C_15  and  C_17
REMARK   11  A    between atoms: C_19  and  C_23
REMARK                            x       y       z     vdW  Elec       q    Type
REMARK                         _______ _______ _______ _____ _____    ______ ____
ROOT
ATOM      1  O   UNL     1     -66.341 -61.089 -69.710  0.00  0.00    +0.000 OA
ATOM      2  O   UNL     1     -70.027 -59.781 -70.792  0.00  0.00    +0.000 OA
ATOM      3  C   UNL     1     -68.658 -60.738 -69.123  0.00  0.00    +0.000 A 
ATOM      4  C   UNL     1     -67.386 -61.052 -68.806  0.00  0.00    +0.000 A 
ATOM      5  C   UNL     1     -68.947 -60.290 -70.516  0.00  0.00    +0.000 A 
ATOM      6  C   UNL     1     -67.861 -60.462 -71.507  0.00  0.00    +0.000 A 
ATOM      7  C   UNL     1     -66.606 -60.845 -71.032  0.00  0.00    +0.000 A 
ATOM      8  C   UNL     1     -68.030 -60.245 -72.882  0.00  0.00    +0.000 A 
ATOM      9  C   UNL     1     -65.530 -61.000 -71.909  0.00  0.00    +0.000 A 
ATOM     10  C   UNL     1     -66.957 -60.401 -73.766  0.00  0.00    +0.000 A 
ATOM     11  C   UNL     1     -65.714 -60.777 -73.267  0.00  0.00    +0.000 A 
ENDROOT
BRANCH   4  12
ATOM     12  C   UNL     1     -66.971 -61.425 -67.437  0.00  0.00    +0.000 A 
ATOM     13  C   UNL     1     -65.995 -60.660 -66.775  0.00  0.00    +0.000 A 
ATOM     14  C   UNL     1     -67.540 -62.529 -66.778  0.00  0.00    +0.000 A 
ATOM     15  C   UNL     1     -65.589 -61.021 -65.495  0.00  0.00    +0.000 A 
ATOM     16  C   UNL     1     -67.123 -62.887 -65.494  0.00  0.00    +0.000 A 
ATOM     17  C   UNL     1     -66.147 -62.130 -64.866  0.00  0.00    +0.000 A 
BRANCH  15  18
ATOM     18  O   UNL     1     -64.636 -60.316 -64.812  0.00  0.00    +0.000 OA
ATOM     19  H   UNL     1     -63.952 -60.033 -65.443  0.00  0.00    +0.000 HD
ENDBRANCH  15  18
BRANCH  17  20
ATOM     20  O   UNL     1     -65.737 -62.482 -63.613  0.00  0.00    +0.000 OA
ATOM     21  H   UNL     1     -64.915 -61.971 -63.466  0.00  0.00    +0.000 HD
ENDBRANCH  17  20
ENDBRANCH   4  12
BRANCH   8  22
ATOM     22  O   UNL     1     -69.250 -59.897 -73.388  0.00  0.00    +0.000 OA
ATOM     23  H   UNL     1     -69.542 -60.530 -74.063  0.00  0.00    +0.000 HD
ENDBRANCH   8  22
BRANCH  11  24
ATOM     24  O   UNL     1     -64.637 -60.942 -74.085  0.00  0.00    +0.000 OA
ATOM     25  H   UNL     1     -64.372 -60.082 -74.451  0.00  0.00    +0.000 HD
ENDBRANCH  11  24
BRANCH   3  26
ATOM     26  O   UNL     1     -69.698 -60.706 -68.206  0.00  0.00    +0.000 OA
BRANCH  26  32
ATOM     27  O   UNL     1     -69.208 -59.075 -66.522  0.00  0.00    +0.000 OA
ATOM     28  C   UNL     1     -71.955 -59.925 -66.306  0.00  0.00    +0.000 C 
ATOM     29  C   UNL     1     -71.115 -59.578 -65.072  0.00  0.00    +0.000 C 
ATOM     30  C   UNL     1     -71.454 -59.172 -67.539  0.00  0.00    +0.000 C 
ATOM     31  C   UNL     1     -69.635 -59.834 -65.380  0.00  0.00    +0.000 C 
ATOM     32  C   UNL     1     -69.933 -59.377 -67.717  0.00  0.00    +0.000 C 
ATOM     33  C   UNL     1     -68.740 -59.437 -64.211  0.00  0.00    +0.000 C 
BRANCH  28  34
ATOM     34  O   UNL     1     -73.326 -59.574 -66.038  0.00  0.00    +0.000 OA
ATOM     35  H   UNL     1     -73.694 -60.347 -65.561  0.00  0.00    +0.000 HD
ENDBRANCH  28  34
BRANCH  29  36
ATOM     36  O   UNL     1     -71.567 -60.364 -63.965  0.00  0.00    +0.000 OA
ATOM     37  H   UNL     1     -72.496 -60.095 -63.818  0.00  0.00    +0.000 HD
ENDBRANCH  29  36
BRANCH  30  38
ATOM     38  O   UNL     1     -71.798 -57.780 -67.364  0.00  0.00    +0.000 OA
ATOM     39  H   UNL     1     -72.738 -57.743 -67.109  0.00  0.00    +0.000 HD
ENDBRANCH  30  38
ENDBRANCH  26  32
ENDBRANCH   3  26
TORSDOF 10
ENDMDL
MODEL 7
REMARK VINA RESULT:      -5.4     35.973     40.966
REMARK  Name = 
REMARK  11 active torsions:
REMARK  status: ('A' for Active; 'I' for Inactive)
REMARK    1  A    between atoms: O_2  and  C_16
REMARK    2  A    between atoms: O_2  and  C_18
REMARK    3  A    between atoms: O_3  and  C_12
REMARK    4  A    between atoms: O_4  and  C_13
REMARK    5  A    between atoms: O_5  and  C_14
REMARK    6  A    between atoms: O_8  and  C_24
REMARK    7  A    between atoms: O_9  and  C_29
REMARK    8  A    between atoms: O_10  and  C_30
REMARK    9  A    between atoms: O_11  and  C_32
REMARK   10  A    between atoms: C_15  and  C_17
REMARK   11  A    between atoms: C_19  and  C_23
REMARK                            x       y       z     vdW  Elec       q    Type
REMARK                         _______ _______ _______ _____ _____    ______ ____
ROOT
ATOM      1  O   UNL     1     -64.826 -61.361 -75.064  0.00  0.00    +0.000 OA
ATOM      2  O   UNL     1     -68.233 -59.165 -74.873  0.00  0.00    +0.000 OA
ATOM      3  C   UNL     1     -66.504 -60.057 -76.213  0.00  0.00    +0.000 A 
ATOM      4  C   UNL     1     -65.440 -60.884 -76.207  0.00  0.00    +0.000 A 
ATOM      5  C   UNL     1     -67.141 -59.719 -74.906  0.00  0.00    +0.000 A 
ATOM      6  C   UNL     1     -66.403 -60.118 -73.686  0.00  0.00    +0.000 A 
ATOM      7  C   UNL     1     -65.283 -60.934 -73.845  0.00  0.00    +0.000 A 
ATOM      8  C   UNL     1     -66.783 -59.729 -72.394  0.00  0.00    +0.000 A 
ATOM      9  C   UNL     1     -64.556 -61.369 -72.734  0.00  0.00    +0.000 A 
ATOM     10  C   UNL     1     -66.058 -60.158 -71.278  0.00  0.00    +0.000 A 
ATOM     11  C   UNL     1     -64.949 -60.978 -71.461  0.00  0.00    +0.000 A 
ENDROOT
BRANCH   4  12
ATOM     12  C   UNL     1     -64.785 -61.354 -77.446  0.00  0.00    +0.000 A 
ATOM     13  C   UNL     1     -63.560 -60.789 -77.841  0.00  0.00    +0.000 A 
ATOM     14  C   UNL     1     -65.361 -62.364 -78.238  0.00  0.00    +0.000 A 
ATOM     15  C   UNL     1     -62.951 -61.216 -79.016  0.00  0.00    +0.000 A 
ATOM     16  C   UNL     1     -64.744 -62.784 -79.419  0.00  0.00    +0.000 A 
ATOM     17  C   UNL     1     -63.546 -62.201 -79.799  0.00  0.00    +0.000 A 
BRANCH  15  18
ATOM     18  O   UNL     1     -61.765 -60.691 -79.449  0.00  0.00    +0.000 OA
ATOM     19  H   UNL     1     -61.636 -59.827 -79.021  0.00  0.00    +0.000 HD
ENDBRANCH  15  18
BRANCH  17  20
ATOM     20  O   UNL     1     -62.947 -62.608 -80.955  0.00  0.00    +0.000 OA
ATOM     21  H   UNL     1     -62.291 -63.278 -80.675  0.00  0.00    +0.000 HD
ENDBRANCH  17  20
ENDBRANCH   4  12
BRANCH   8  22
ATOM     22  O   UNL     1     -67.856 -58.906 -72.200  0.00  0.00    +0.000 OA
ATOM     23  H   UNL     1     -68.078 -58.836 -71.258  0.00  0.00    +0.000 HD
ENDBRANCH   8  22
BRANCH  11  24
ATOM     24  O   UNL     1     -64.209 -61.424 -70.408  0.00  0.00    +0.000 OA
ATOM     25  H   UNL     1     -63.291 -61.568 -70.694  0.00  0.00    +0.000 HD
ENDBRANCH  11  24
BRANCH   3  26
ATOM     26  O   UNL     1     -67.110 -59.585 -77.367  0.00  0.00    +0.000 OA
BRANCH  26  32
ATOM     27  O   UNL     1     -67.670 -57.271 -77.633  0.00  0.00    +0.000 OA
ATOM     28  C   UNL     1     -67.050 -58.439 -80.195  0.00  0.00    +0.000 C 
ATOM     29  C   UNL     1     -68.128 -57.361 -80.035  0.00  0.00    +0.000 C 
ATOM     30  C   UNL     1     -65.986 -58.316 -79.103  0.00  0.00    +0.000 C 
ATOM     31  C   UNL     1     -68.704 -57.429 -78.617  0.00  0.00    +0.000 C 
ATOM     32  C   UNL     1     -66.648 -58.269 -77.707  0.00  0.00    +0.000 C 
ATOM     33  C   UNL     1     -69.733 -56.330 -78.374  0.00  0.00    +0.000 C 
BRANCH  28  34
ATOM     34  O   UNL     1     -66.443 -58.288 -81.493  0.00  0.00    +0.000 OA
ATOM     35  H   UNL     1     -66.676 -59.109 -81.975  0.00  0.00    +0.000 HD
ENDBRANCH  28  34
BRANCH  29  36
ATOM     36  O   UNL     1     -69.140 -57.563 -81.026  0.00  0.00    +0.000 OA
ATOM     37  H   UNL     1     -69.976 -57.280 -80.606  0.00  0.00    +0.000 HD
ENDBRANCH  29  36
BRANCH  30  38
ATOM     38  O   UNL     1     -65.218 -57.126 -79.381  0.00  0.00    +0.000 OA
ATOM     39  H   UNL     1     -65.480 -56.811 -80.265  0.00  0.00    +0.000 HD
ENDBRANCH  30  38
ENDBRANCH  26  32
ENDBRANCH   3  26
TORSDOF 10
ENDMDL
MODEL 8
REMARK VINA RESULT:      -5.3     28.674     33.445
REMARK  Name = 
REMARK  11 active torsions:
REMARK  status: ('A' for Active; 'I' for Inactive)
REMARK    1  A    between atoms: O_2  and  C_16
REMARK    2  A    between atoms: O_2  and  C_18
REMARK    3  A    between atoms: O_3  and  C_12
REMARK    4  A    between atoms: O_4  and  C_13
REMARK    5  A    between atoms: O_5  and  C_14
REMARK    6  A    between atoms: O_8  and  C_24
REMARK    7  A    between atoms: O_9  and  C_29
REMARK    8  A    between atoms: O_10  and  C_30
REMARK    9  A    between atoms: O_11  and  C_32
REMARK   10  A    between atoms: C_15  and  C_17
REMARK   11  A    between atoms: C_19  and  C_23
REMARK                            x       y       z     vdW  Elec       q    Type
REMARK                         _______ _______ _______ _____ _____    ______ ____
ROOT
ATOM      1  O   UNL     1     -67.335 -60.941 -66.990  0.00  0.00    +0.000 OA
ATOM      2  O   UNL     1     -71.183 -60.328 -68.121  0.00  0.00    +0.000 OA
ATOM      3  C   UNL     1     -68.993 -60.950 -68.747  0.00  0.00    +0.000 A 
ATOM      4  C   UNL     1     -67.764 -61.233 -68.271  0.00  0.00    +0.000 A 
ATOM      5  C   UNL     1     -70.002 -60.388 -67.803  0.00  0.00    +0.000 A 
ATOM      6  C   UNL     1     -69.501 -59.953 -66.479  0.00  0.00    +0.000 A 
ATOM      7  C   UNL     1     -68.184 -60.272 -66.148  0.00  0.00    +0.000 A 
ATOM      8  C   UNL     1     -70.287 -59.257 -65.549  0.00  0.00    +0.000 A 
ATOM      9  C   UNL     1     -67.656 -59.914 -64.906  0.00  0.00    +0.000 A 
ATOM     10  C   UNL     1     -69.763 -58.893 -64.304  0.00  0.00    +0.000 A 
ATOM     11  C   UNL     1     -68.449 -59.229 -63.995  0.00  0.00    +0.000 A 
ENDROOT
BRANCH   4  12
ATOM     12  C   UNL     1     -66.714 -61.871 -69.094  0.00  0.00    +0.000 A 
ATOM     13  C   UNL     1     -65.799 -61.068 -69.797  0.00  0.00    +0.000 A 
ATOM     14  C   UNL     1     -66.607 -63.270 -69.182  0.00  0.00    +0.000 A 
ATOM     15  C   UNL     1     -64.823 -61.665 -70.586  0.00  0.00    +0.000 A 
ATOM     16  C   UNL     1     -65.626 -63.862 -69.981  0.00  0.00    +0.000 A 
ATOM     17  C   UNL     1     -64.745 -63.052 -70.679  0.00  0.00    +0.000 A 
BRANCH  15  18
ATOM     18  O   UNL     1     -63.916 -60.929 -71.297  0.00  0.00    +0.000 OA
ATOM     19  H   UNL     1     -63.186 -60.684 -70.703  0.00  0.00    +0.000 HD
ENDBRANCH  15  18
BRANCH  17  20
ATOM     20  O   UNL     1     -63.789 -63.630 -71.464  0.00  0.00    +0.000 OA
ATOM     21  H   UNL     1     -63.289 -62.879 -71.843  0.00  0.00    +0.000 HD
ENDBRANCH  17  20
ENDBRANCH   4  12
BRANCH   8  22
ATOM     22  O   UNL     1     -71.571 -58.901 -65.847  0.00  0.00    +0.000 OA
ATOM     23  H   UNL     1     -71.998 -59.567 -66.409  0.00  0.00    +0.000 HD
ENDBRANCH   8  22
BRANCH  11  24
ATOM     24  O   UNL     1     -67.890 -58.899 -62.796  0.00  0.00    +0.000 OA
ATOM     25  H   UNL     1     -67.869 -57.932 -62.703  0.00  0.00    +0.000 HD
ENDBRANCH  11  24
BRANCH   3  26
ATOM     26  O   UNL     1     -69.410 -61.247 -70.035  0.00  0.00    +0.000 OA
BRANCH  26  32
ATOM     27  O   UNL     1     -70.793 -60.320 -71.757  0.00  0.00    +0.000 OA
ATOM     28  C   UNL     1     -68.018 -60.157 -72.523  0.00  0.00    +0.000 C 
ATOM     29  C   UNL     1     -69.127 -60.420 -73.548  0.00  0.00    +0.000 C 
ATOM     30  C   UNL     1     -68.554 -59.377 -71.322  0.00  0.00    +0.000 C 
ATOM     31  C   UNL     1     -70.304 -61.112 -72.852  0.00  0.00    +0.000 C 
ATOM     32  C   UNL     1     -69.812 -60.068 -70.748  0.00  0.00    +0.000 C 
ATOM     33  C   UNL     1     -71.471 -61.334 -73.807  0.00  0.00    +0.000 C 
BRANCH  28  34
ATOM     34  O   UNL     1     -66.969 -59.409 -73.167  0.00  0.00    +0.000 OA
ATOM     35  H   UNL     1     -66.954 -58.547 -72.702  0.00  0.00    +0.000 HD
ENDBRANCH  28  34
BRANCH  29  36
ATOM     36  O   UNL     1     -68.599 -61.219 -74.611  0.00  0.00    +0.000 OA
ATOM     37  H   UNL     1     -69.316 -61.277 -75.273  0.00  0.00    +0.000 HD
ENDBRANCH  29  36
BRANCH  30  38
ATOM     38  O   UNL     1     -68.829 -58.032 -71.769  0.00  0.00    +0.000 OA
ATOM     39  H   UNL     1     -68.747 -57.446 -70.994  0.00  0.00    +0.000 HD
ENDBRANCH  30  38
ENDBRANCH  26  32
ENDBRANCH   3  26
TORSDOF 10
ENDMDL
MODEL 9
REMARK VINA RESULT:      -5.3     14.900     19.258
REMARK  Name = 
REMARK  11 active torsions:
REMARK  status: ('A' for Active; 'I' for Inactive)
REMARK    1  A    between atoms: O_2  and  C_16
REMARK    2  A    between atoms: O_2  and  C_18
REMARK    3  A    between atoms: O_3  and  C_12
REMARK    4  A    between atoms: O_4  and  C_13
REMARK    5  A    between atoms: O_5  and  C_14
REMARK    6  A    between atoms: O_8  and  C_24
REMARK    7  A    between atoms: O_9  and  C_29
REMARK    8  A    between atoms: O_10  and  C_30
REMARK    9  A    between atoms: O_11  and  C_32
REMARK   10  A    between atoms: C_15  and  C_17
REMARK   11  A    between atoms: C_19  and  C_23
REMARK                            x       y       z     vdW  Elec       q    Type
REMARK                         _______ _______ _______ _____ _____    ______ ____
ROOT
ATOM      1  O   UNL     1     -62.277 -54.654 -21.218  0.00  0.00    +0.000 OA
ATOM      2  O   UNL     1     -61.892 -50.864 -22.616  0.00  0.00    +0.000 OA
ATOM      3  C   UNL     1     -62.834 -52.313 -21.006  0.00  0.00    +0.000 A 
ATOM      4  C   UNL     1     -62.825 -53.579 -20.544  0.00  0.00    +0.000 A 
ATOM      5  C   UNL     1     -62.107 -52.021 -22.276  0.00  0.00    +0.000 A 
ATOM      6  C   UNL     1     -61.643 -53.190 -23.058  0.00  0.00    +0.000 A 
ATOM      7  C   UNL     1     -61.749 -54.449 -22.466  0.00  0.00    +0.000 A 
ATOM      8  C   UNL     1     -61.096 -53.088 -24.345  0.00  0.00    +0.000 A 
ATOM      9  C   UNL     1     -61.307 -55.591 -23.137  0.00  0.00    +0.000 A 
ATOM     10  C   UNL     1     -60.653 -54.228 -25.024  0.00  0.00    +0.000 A 
ATOM     11  C   UNL     1     -60.763 -55.471 -24.409  0.00  0.00    +0.000 A 
ENDROOT
BRANCH   4  12
ATOM     12  C   UNL     1     -63.438 -53.965 -19.255  0.00  0.00    +0.000 A 
ATOM     13  C   UNL     1     -62.646 -54.566 -18.262  0.00  0.00    +0.000 A 
ATOM     14  C   UNL     1     -64.801 -53.734 -18.998  0.00  0.00    +0.000 A 
ATOM     15  C   UNL     1     -63.225 -54.948 -17.056  0.00  0.00    +0.000 A 
ATOM     16  C   UNL     1     -65.375 -54.124 -17.786  0.00  0.00    +0.000 A 
ATOM     17  C   UNL     1     -64.581 -54.732 -16.828  0.00  0.00    +0.000 A 
BRANCH  15  18
ATOM     18  O   UNL     1     -62.500 -55.545 -16.062  0.00  0.00    +0.000 OA
ATOM     19  H   UNL     1     -62.344 -56.473 -16.311  0.00  0.00    +0.000 HD
ENDBRANCH  15  18
BRANCH  17  20
ATOM     20  O   UNL     1     -65.143 -55.117 -15.645  0.00  0.00    +0.000 OA
ATOM     21  H   UNL     1     -66.077 -55.308 -15.863  0.00  0.00    +0.000 HD
ENDBRANCH  17  20
ENDBRANCH   4  12
BRANCH   8  22
ATOM     22  O   UNL     1     -61.002 -51.878 -24.970  0.00  0.00    +0.000 OA
ATOM     23  H   UNL     1     -61.856 -51.610 -25.345  0.00  0.00    +0.000 HD
ENDBRANCH   8  22
BRANCH  11  24
ATOM     24  O   UNL     1     -60.347 -56.613 -25.026  0.00  0.00    +0.000 OA
ATOM     25  H   UNL     1     -60.104 -57.274 -24.357  0.00  0.00    +0.000 HD
ENDBRANCH  11  24
BRANCH   3  26
ATOM     26  O   UNL     1     -63.388 -51.243 -20.320  0.00  0.00    +0.000 OA
BRANCH  26  32
ATOM     27  O   UNL     1     -62.355 -51.006 -18.173  0.00  0.00    +0.000 OA
ATOM     28  C   UNL     1     -63.893 -48.648 -18.795  0.00  0.00    +0.000 C 
ATOM     29  C   UNL     1     -63.783 -49.190 -17.365  0.00  0.00    +0.000 C 
ATOM     30  C   UNL     1     -62.667 -49.035 -19.623  0.00  0.00    +0.000 C 
ATOM     31  C   UNL     1     -63.537 -50.702 -17.416  0.00  0.00    +0.000 C 
ATOM     32  C   UNL     1     -62.409 -50.555 -19.529  0.00  0.00    +0.000 C 
ATOM     33  C   UNL     1     -63.345 -51.288 -16.021  0.00  0.00    +0.000 C 
BRANCH  28  34
ATOM     34  O   UNL     1     -64.013 -47.214 -18.731  0.00  0.00    +0.000 OA
ATOM     35  H   UNL     1     -63.827 -46.989 -17.795  0.00  0.00    +0.000 HD
ENDBRANCH  28  34
BRANCH  29  36
ATOM     36  O   UNL     1     -64.984 -48.875 -16.654  0.00  0.00    +0.000 OA
ATOM     37  H   UNL     1     -64.750 -48.942 -15.707  0.00  0.00    +0.000 HD
ENDBRANCH  29  36
BRANCH  30  38
ATOM     38  O   UNL     1     -61.552 -48.262 -19.129  0.00  0.00    +0.000 OA
ATOM     39  H   UNL     1     -60.765 -48.837 -19.156  0.00  0.00    +0.000 HD
ENDBRANCH  30  38
ENDBRANCH  26  32
ENDBRANCH   3  26
TORSDOF 10
ENDMDL
