MODEL 1
REMARK VINA RESULT:      -6.1      0.000      0.000
REMARK  Name = 
REMARK  14 active torsions:
REMARK  status: ('A' for Active; 'I' for Inactive)
REMARK    1  A    between atoms: O_1  and  C_24
REMARK    2  A    between atoms: O_1  and  C_36
REMARK    3  A    between atoms: O_4  and  C_30
REMARK    4  A    between atoms: O_4  and  C_37
REMARK    5  A    between atoms: O_7  and  C_33
REMARK    6  A    between atoms: O_7  and  C_38
REMARK    7  A    between atoms: N_10  and  C_23
REMARK    8  A    between atoms: C_15  and  C_26
REMARK    9  A    between atoms: C_16  and  C_24
REMARK   10  A    between atoms: C_31  and  C_34
REMARK   11  A    between atoms: C_32  and  C_35
REMARK   12  A    between atoms: C_36  and  C_39
REMARK   13  A    between atoms: C_39  and  C_40
REMARK   14  A    between atoms: C_41  and  C_42
REMARK                            x       y       z     vdW  Elec       q    Type
REMARK                         _______ _______ _______ _____ _____    ______ ____
ROOT
ATOM      1  O   UNL     1     -63.832 -43.495 -57.849  0.00  0.00    +0.000 OA
ATOM      2  O   UNL     1     -64.867 -48.186 -60.127  0.00  0.00    +0.000 OA
ATOM      3  O   UNL     1     -62.062 -43.600 -53.537  0.00  0.00    +0.000 OA
ATOM      4  O   UNL     1     -64.009 -48.072 -51.419  0.00  0.00    +0.000 OA
ATOM      5  N   UNL     1     -65.548 -46.889 -55.212  0.00  0.00    +0.000 NA
ATOM      6  N   UNL     1     -67.416 -45.347 -56.874  0.00  0.00    +0.000 NA
ATOM      7  C   UNL     1     -65.480 -45.409 -55.325  0.00  0.00    +0.000 C 
ATOM      8  C   UNL     1     -65.998 -44.903 -56.739  0.00  0.00    +0.000 C 
ATOM      9  C   UNL     1     -67.450 -46.832 -56.909  0.00  0.00    +0.000 C 
ATOM     10  C   UNL     1     -66.913 -47.408 -55.545  0.00  0.00    +0.000 C 
ATOM     11  C   UNL     1     -64.971 -47.481 -53.973  0.00  0.00    +0.000 C 
ATOM     12  C   UNL     1     -64.051 -44.901 -55.038  0.00  0.00    +0.000 C 
ATOM     13  C   UNL     1     -66.646 -47.408 -58.108  0.00  0.00    +0.000 C 
ATOM     14  C   UNL     1     -65.138 -45.443 -57.873  0.00  0.00    +0.000 C 
ATOM     15  C   UNL     1     -65.428 -46.602 -58.482  0.00  0.00    +0.000 C 
ATOM     16  C   UNL     1     -63.958 -46.604 -53.254  0.00  0.00    +0.000 C 
ATOM     17  C   UNL     1     -63.517 -45.440 -53.746  0.00  0.00    +0.000 C 
ATOM     18  C   UNL     1     -68.127 -44.708 -57.977  0.00  0.00    +0.000 C 
ATOM     19  C   UNL     1     -63.999 -44.612 -58.328  0.00  0.00    +0.000 C 
ATOM     20  C   UNL     1     -64.584 -47.129 -59.575  0.00  0.00    +0.000 C 
ATOM     21  C   UNL     1     -62.492 -44.637 -53.044  0.00  0.00    +0.000 C 
ATOM     22  C   UNL     1     -63.500 -47.074 -51.920  0.00  0.00    +0.000 C 
ATOM     23  C   UNL     1     -63.085 -45.183 -59.371  0.00  0.00    +0.000 C 
ATOM     24  C   UNL     1     -63.380 -46.350 -59.965  0.00  0.00    +0.000 C 
ATOM     25  C   UNL     1     -61.975 -45.142 -51.747  0.00  0.00    +0.000 C 
ATOM     26  C   UNL     1     -62.427 -46.293 -51.223  0.00  0.00    +0.000 C 
ATOM     27  C   UNL     1     -62.554 -46.969 -61.055  0.00  0.00    +0.000 C 
ATOM     28  C   UNL     1     -60.933 -44.276 -51.101  0.00  0.00    +0.000 C 
ENDROOT
BRANCH  23  29
ATOM     29  O   UNL     1     -61.955 -44.486 -59.785  0.00  0.00    +0.000 OA
ATOM     30  C   UNL     1     -60.830 -44.567 -58.914  0.00  0.00    +0.000 C 
ENDBRANCH  23  29
BRANCH  26  31
ATOM     31  O   UNL     1     -61.929 -46.713 -49.994  0.00  0.00    +0.000 OA
ATOM     32  C   UNL     1     -62.655 -46.247 -48.858  0.00  0.00    +0.000 C 
ENDBRANCH  26  31
BRANCH  10  34
ATOM     33  N   UNL     1     -68.721 -46.949 -53.660  0.00  0.00    +0.000 NA
ATOM     34  C   UNL     1     -67.941 -47.167 -54.491  0.00  0.00    +0.000 C 
ENDBRANCH  10  34
BRANCH  11  35
ATOM     35  C   UNL     1     -64.315 -48.838 -54.365  0.00  0.00    +0.000 C 
BRANCH  35  36
ATOM     36  O   UNL     1     -65.321 -49.873 -54.346  0.00  0.00    +0.000 OA
BRANCH  36  38
ATOM     37  O   UNL     1     -64.236 -50.998 -52.671  0.00  0.00    +0.000 OA
ATOM     38  C   UNL     1     -65.250 -50.716 -53.289  0.00  0.00    +0.000 C 
BRANCH  38  39
ATOM     39  C   UNL     1     -66.613 -51.162 -52.880  0.00  0.00    +0.000 C 
ATOM     40  C   UNL     1     -67.073 -52.399 -53.600  0.00  0.00    +0.000 C 
ATOM     41  C   UNL     1     -67.389 -50.538 -51.973  0.00  0.00    +0.000 C 
ATOM     42  C   UNL     1     -67.124 -49.255 -51.250  0.00  0.00    +0.000 C 
ENDBRANCH  38  39
ENDBRANCH  36  38
ENDBRANCH  35  36
ENDBRANCH  11  35
TORSDOF 7
ENDMDL
MODEL 2
REMARK VINA RESULT:      -5.9     34.788     37.699
REMARK  Name = 
REMARK  14 active torsions:
REMARK  status: ('A' for Active; 'I' for Inactive)
REMARK    1  A    between atoms: O_1  and  C_24
REMARK    2  A    between atoms: O_1  and  C_36
REMARK    3  A    between atoms: O_4  and  C_30
REMARK    4  A    between atoms: O_4  and  C_37
REMARK    5  A    between atoms: O_7  and  C_33
REMARK    6  A    between atoms: O_7  and  C_38
REMARK    7  A    between atoms: N_10  and  C_23
REMARK    8  A    between atoms: C_15  and  C_26
REMARK    9  A    between atoms: C_16  and  C_24
REMARK   10  A    between atoms: C_31  and  C_34
REMARK   11  A    between atoms: C_32  and  C_35
REMARK   12  A    between atoms: C_36  and  C_39
REMARK   13  A    between atoms: C_39  and  C_40
REMARK   14  A    between atoms: C_41  and  C_42
REMARK                            x       y       z     vdW  Elec       q    Type
REMARK                         _______ _______ _______ _____ _____    ______ ____
ROOT
ATOM      1  O   UNL     1     -64.387 -53.801 -19.705  0.00  0.00    +0.000 OA
ATOM      2  O   UNL     1     -60.708 -50.521 -17.713  0.00  0.00    +0.000 OA
ATOM      3  O   UNL     1     -68.611 -51.989 -20.492  0.00  0.00    +0.000 OA
ATOM      4  O   UNL     1     -69.081 -48.119 -16.876  0.00  0.00    +0.000 OA
ATOM      5  N   UNL     1     -65.699 -50.689 -16.542  0.00  0.00    +0.000 NA
ATOM      6  N   UNL     1     -64.415 -53.159 -15.605  0.00  0.00    +0.000 NA
ATOM      7  C   UNL     1     -66.046 -52.026 -17.090  0.00  0.00    +0.000 C 
ATOM      8  C   UNL     1     -64.810 -53.021 -17.037  0.00  0.00    +0.000 C 
ATOM      9  C   UNL     1     -63.928 -51.843 -15.116  0.00  0.00    +0.000 C 
ATOM     10  C   UNL     1     -65.097 -50.790 -15.174  0.00  0.00    +0.000 C 
ATOM     11  C   UNL     1     -66.749 -49.638 -16.655  0.00  0.00    +0.000 C 
ATOM     12  C   UNL     1     -66.607 -51.903 -18.522  0.00  0.00    +0.000 C 
ATOM     13  C   UNL     1     -62.692 -51.342 -15.913  0.00  0.00    +0.000 C 
ATOM     14  C   UNL     1     -63.652 -52.517 -17.886  0.00  0.00    +0.000 C 
ATOM     15  C   UNL     1     -62.696 -51.730 -17.371  0.00  0.00    +0.000 C 
ATOM     16  C   UNL     1     -67.791 -49.886 -17.734  0.00  0.00    +0.000 C 
ATOM     17  C   UNL     1     -67.719 -50.902 -18.602  0.00  0.00    +0.000 C 
ATOM     18  C   UNL     1     -63.496 -54.265 -15.355  0.00  0.00    +0.000 C 
ATOM     19  C   UNL     1     -63.579 -52.976 -19.292  0.00  0.00    +0.000 C 
ATOM     20  C   UNL     1     -61.579 -51.233 -18.201  0.00  0.00    +0.000 C 
ATOM     21  C   UNL     1     -68.724 -51.084 -19.673  0.00  0.00    +0.000 C 
ATOM     22  C   UNL     1     -68.956 -48.963 -17.757  0.00  0.00    +0.000 C 
ATOM     23  C   UNL     1     -62.502 -52.402 -20.165  0.00  0.00    +0.000 C 
ATOM     24  C   UNL     1     -61.558 -51.605 -19.639  0.00  0.00    +0.000 C 
ATOM     25  C   UNL     1     -69.849 -50.119 -19.747  0.00  0.00    +0.000 C 
ATOM     26  C   UNL     1     -69.955 -49.110 -18.866  0.00  0.00    +0.000 C 
ATOM     27  C   UNL     1     -60.414 -51.031 -20.423  0.00  0.00    +0.000 C 
ATOM     28  C   UNL     1     -70.822 -50.365 -20.863  0.00  0.00    +0.000 C 
ENDROOT
BRANCH  23  29
ATOM     29  O   UNL     1     -62.426 -52.733 -21.513  0.00  0.00    +0.000 OA
ATOM     30  C   UNL     1     -61.873 -54.015 -21.800  0.00  0.00    +0.000 C 
ENDBRANCH  23  29
BRANCH  26  31
ATOM     31  O   UNL     1     -71.039 -48.245 -18.962  0.00  0.00    +0.000 OA
ATOM     32  C   UNL     1     -72.137 -48.557 -18.106  0.00  0.00    +0.000 C 
ENDBRANCH  26  31
BRANCH  10  34
ATOM     33  N   UNL     1     -66.841 -51.312 -13.243  0.00  0.00    +0.000 NA
ATOM     34  C   UNL     1     -66.074 -51.104 -14.090  0.00  0.00    +0.000 C 
ENDBRANCH  10  34
BRANCH  11  35
ATOM     35  C   UNL     1     -66.026 -48.282 -16.916  0.00  0.00    +0.000 C 
BRANCH  35  36
ATOM     36  O   UNL     1     -64.904 -48.505 -17.795  0.00  0.00    +0.000 OA
BRANCH  36  38
ATOM     37  O   UNL     1     -64.330 -46.568 -18.875  0.00  0.00    +0.000 OA
ATOM     38  C   UNL     1     -64.844 -47.675 -18.863  0.00  0.00    +0.000 C 
BRANCH  38  39
ATOM     39  C   UNL     1     -65.375 -48.349 -20.082  0.00  0.00    +0.000 C 
ATOM     40  C   UNL     1     -64.484 -49.448 -20.589  0.00  0.00    +0.000 C 
ATOM     41  C   UNL     1     -66.525 -48.023 -20.704  0.00  0.00    +0.000 C 
ATOM     42  C   UNL     1     -67.465 -46.901 -20.391  0.00  0.00    +0.000 C 
ENDBRANCH  38  39
ENDBRANCH  36  38
ENDBRANCH  35  36
ENDBRANCH  11  35
TORSDOF 7
ENDMDL
MODEL 3
REMARK VINA RESULT:      -5.8      4.140      8.234
REMARK  Name = 
REMARK  14 active torsions:
REMARK  status: ('A' for Active; 'I' for Inactive)
REMARK    1  A    between atoms: O_1  and  C_24
REMARK    2  A    between atoms: O_1  and  C_36
REMARK    3  A    between atoms: O_4  and  C_30
REMARK    4  A    between atoms: O_4  and  C_37
REMARK    5  A    between atoms: O_7  and  C_33
REMARK    6  A    between atoms: O_7  and  C_38
REMARK    7  A    between atoms: N_10  and  C_23
REMARK    8  A    between atoms: C_15  and  C_26
REMARK    9  A    between atoms: C_16  and  C_24
REMARK   10  A    between atoms: C_31  and  C_34
REMARK   11  A    between atoms: C_32  and  C_35
REMARK   12  A    between atoms: C_36  and  C_39
REMARK   13  A    between atoms: C_39  and  C_40
REMARK   14  A    between atoms: C_41  and  C_42
REMARK                            x       y       z     vdW  Elec       q    Type
REMARK                         _______ _______ _______ _____ _____    ______ ____
ROOT
ATOM      1  O   UNL     1     -60.496 -43.547 -54.334  0.00  0.00    +0.000 OA
ATOM      2  O   UNL     1     -57.481 -41.401 -58.151  0.00  0.00    +0.000 OA
ATOM      3  O   UNL     1     -64.194 -46.024 -55.723  0.00  0.00    +0.000 OA
ATOM      4  O   UNL     1     -65.600 -43.815 -60.351  0.00  0.00    +0.000 OA
ATOM      5  N   UNL     1     -62.592 -41.824 -58.083  0.00  0.00    +0.000 NA
ATOM      6  N   UNL     1     -61.761 -39.952 -55.978  0.00  0.00    +0.000 NA
ATOM      7  C   UNL     1     -62.807 -42.101 -56.639  0.00  0.00    +0.000 C 
ATOM      8  C   UNL     1     -61.689 -41.422 -55.738  0.00  0.00    +0.000 C 
ATOM      9  C   UNL     1     -61.396 -39.681 -57.391  0.00  0.00    +0.000 C 
ATOM     10  C   UNL     1     -62.446 -40.357 -58.350  0.00  0.00    +0.000 C 
ATOM     11  C   UNL     1     -63.512 -42.514 -59.030  0.00  0.00    +0.000 C 
ATOM     12  C   UNL     1     -62.894 -43.619 -56.377  0.00  0.00    +0.000 C 
ATOM     13  C   UNL     1     -59.955 -40.156 -57.726  0.00  0.00    +0.000 C 
ATOM     14  C   UNL     1     -60.306 -41.970 -56.059  0.00  0.00    +0.000 C 
ATOM     15  C   UNL     1     -59.524 -41.399 -56.988  0.00  0.00    +0.000 C 
ATOM     16  C   UNL     1     -64.181 -43.764 -58.478  0.00  0.00    +0.000 C 
ATOM     17  C   UNL     1     -63.885 -44.285 -57.282  0.00  0.00    +0.000 C 
ATOM     18  C   UNL     1     -61.009 -39.163 -55.006  0.00  0.00    +0.000 C 
ATOM     19  C   UNL     1     -59.822 -43.124 -55.268  0.00  0.00    +0.000 C 
ATOM     20  C   UNL     1     -58.187 -41.940 -57.306  0.00  0.00    +0.000 C 
ATOM     21  C   UNL     1     -64.518 -45.533 -56.799  0.00  0.00    +0.000 C 
ATOM     22  C   UNL     1     -65.243 -44.374 -59.319  0.00  0.00    +0.000 C 
ATOM     23  C   UNL     1     -58.506 -43.736 -55.648  0.00  0.00    +0.000 C 
ATOM     24  C   UNL     1     -57.738 -43.161 -56.587  0.00  0.00    +0.000 C 
ATOM     25  C   UNL     1     -65.525 -46.188 -57.670  0.00  0.00    +0.000 C 
ATOM     26  C   UNL     1     -65.856 -45.664 -58.861  0.00  0.00    +0.000 C 
ATOM     27  C   UNL     1     -56.386 -43.671 -56.994  0.00  0.00    +0.000 C 
ATOM     28  C   UNL     1     -66.115 -47.452 -57.114  0.00  0.00    +0.000 C 
ENDROOT
BRANCH  23  29
ATOM     29  O   UNL     1     -58.032 -44.868 -54.995  0.00  0.00    +0.000 OA
ATOM     30  C   UNL     1     -57.449 -44.638 -53.714  0.00  0.00    +0.000 C 
ENDBRANCH  23  29
BRANCH  26  31
ATOM     31  O   UNL     1     -66.822 -46.302 -59.632  0.00  0.00    +0.000 OA
ATOM     32  C   UNL     1     -68.144 -45.786 -59.490  0.00  0.00    +0.000 C 
ENDBRANCH  26  31
BRANCH  10  34
ATOM     33  N   UNL     1     -64.710 -38.985 -58.182  0.00  0.00    +0.000 NA
ATOM     34  C   UNL     1     -63.721 -39.585 -58.277  0.00  0.00    +0.000 C 
ENDBRANCH  10  34
BRANCH  11  35
ATOM     35  C   UNL     1     -62.690 -42.869 -60.305  0.00  0.00    +0.000 C 
BRANCH  35  36
ATOM     36  O   UNL     1     -61.393 -43.363 -59.910  0.00  0.00    +0.000 OA
BRANCH  36  38
ATOM     37  O   UNL     1     -60.567 -44.792 -61.498  0.00  0.00    +0.000 OA
ATOM     38  C   UNL     1     -61.073 -44.580 -60.408  0.00  0.00    +0.000 C 
BRANCH  38  39
ATOM     39  C   UNL     1     -61.296 -45.642 -59.385  0.00  0.00    +0.000 C 
ATOM     40  C   UNL     1     -60.491 -45.438 -58.132  0.00  0.00    +0.000 C 
ATOM     41  C   UNL     1     -62.117 -46.700 -59.537  0.00  0.00    +0.000 C 
ATOM     42  C   UNL     1     -62.902 -47.099 -60.747  0.00  0.00    +0.000 C 
ENDBRANCH  38  39
ENDBRANCH  36  38
ENDBRANCH  35  36
ENDBRANCH  11  35
TORSDOF 7
ENDMDL
MODEL 4
REMARK VINA RESULT:      -5.8     31.903     37.675
REMARK  Name = 
REMARK  14 active torsions:
REMARK  status: ('A' for Active; 'I' for Inactive)
REMARK    1  A    between atoms: O_1  and  C_24
REMARK    2  A    between atoms: O_1  and  C_36
REMARK    3  A    between atoms: O_4  and  C_30
REMARK    4  A    between atoms: O_4  and  C_37
REMARK    5  A    between atoms: O_7  and  C_33
REMARK    6  A    between atoms: O_7  and  C_38
REMARK    7  A    between atoms: N_10  and  C_23
REMARK    8  A    between atoms: C_15  and  C_26
REMARK    9  A    between atoms: C_16  and  C_24
REMARK   10  A    between atoms: C_31  and  C_34
REMARK   11  A    between atoms: C_32  and  C_35
REMARK   12  A    between atoms: C_36  and  C_39
REMARK   13  A    between atoms: C_39  and  C_40
REMARK   14  A    between atoms: C_41  and  C_42
REMARK                            x       y       z     vdW  Elec       q    Type
REMARK                         _______ _______ _______ _____ _____    ______ ____
ROOT
ATOM      1  O   UNL     1     -62.029 -56.641 -17.587  0.00  0.00    +0.000 OA
ATOM      2  O   UNL     1     -61.229 -52.903 -13.893  0.00  0.00    +0.000 OA
ATOM      3  O   UNL     1     -61.511 -55.342 -22.036  0.00  0.00    +0.000 OA
ATOM      4  O   UNL     1     -62.794 -50.182 -22.062  0.00  0.00    +0.000 OA
ATOM      5  N   UNL     1     -63.501 -52.341 -18.457  0.00  0.00    +0.000 NA
ATOM      6  N   UNL     1     -65.173 -54.062 -16.764  0.00  0.00    +0.000 NA
ATOM      7  C   UNL     1     -63.771 -53.765 -18.787  0.00  0.00    +0.000 C 
ATOM      8  C   UNL     1     -63.998 -54.637 -17.479  0.00  0.00    +0.000 C 
ATOM      9  C   UNL     1     -64.831 -52.689 -16.310  0.00  0.00    +0.000 C 
ATOM     10  C   UNL     1     -64.555 -51.770 -17.559  0.00  0.00    +0.000 C 
ATOM     11  C   UNL     1     -63.151 -51.455 -19.602  0.00  0.00    +0.000 C 
ATOM     12  C   UNL     1     -62.642 -54.350 -19.661  0.00  0.00    +0.000 C 
ATOM     13  C   UNL     1     -63.620 -52.679 -15.337  0.00  0.00    +0.000 C 
ATOM     14  C   UNL     1     -62.760 -54.647 -16.593  0.00  0.00    +0.000 C 
ATOM     15  C   UNL     1     -62.582 -53.734 -15.628  0.00  0.00    +0.000 C 
ATOM     16  C   UNL     1     -62.615 -52.176 -20.830  0.00  0.00    +0.000 C 
ATOM     17  C   UNL     1     -62.359 -53.489 -20.855  0.00  0.00    +0.000 C 
ATOM     18  C   UNL     1     -65.697 -54.925 -15.709  0.00  0.00    +0.000 C 
ATOM     19  C   UNL     1     -61.782 -55.741 -16.791  0.00  0.00    +0.000 C 
ATOM     20  C   UNL     1     -61.373 -53.739 -14.777  0.00  0.00    +0.000 C 
ATOM     21  C   UNL     1     -61.789 -54.148 -22.051  0.00  0.00    +0.000 C 
ATOM     22  C   UNL     1     -62.431 -51.354 -22.055  0.00  0.00    +0.000 C 
ATOM     23  C   UNL     1     -60.510 -55.700 -15.997  0.00  0.00    +0.000 C 
ATOM     24  C   UNL     1     -60.339 -54.773 -15.041  0.00  0.00    +0.000 C 
ATOM     25  C   UNL     1     -61.531 -53.315 -23.252  0.00  0.00    +0.000 C 
ATOM     26  C   UNL     1     -61.809 -52.002 -23.256  0.00  0.00    +0.000 C 
ATOM     27  C   UNL     1     -59.125 -54.689 -14.162  0.00  0.00    +0.000 C 
ATOM     28  C   UNL     1     -60.946 -54.055 -24.420  0.00  0.00    +0.000 C 
ENDROOT
BRANCH  23  29
ATOM     29  O   UNL     1     -59.517 -56.654 -16.192  0.00  0.00    +0.000 OA
ATOM     30  C   UNL     1     -58.650 -56.420 -17.298  0.00  0.00    +0.000 C 
ENDBRANCH  23  29
BRANCH  26  31
ATOM     31  O   UNL     1     -61.573 -51.267 -24.414  0.00  0.00    +0.000 OA
ATOM     32  C   UNL     1     -60.337 -50.556 -24.434  0.00  0.00    +0.000 C 
ENDBRANCH  26  31
BRANCH  10  34
ATOM     33  N   UNL     1     -66.868 -51.230 -18.740  0.00  0.00    +0.000 NA
ATOM     34  C   UNL     1     -65.855 -51.485 -18.235  0.00  0.00    +0.000 C 
ENDBRANCH  10  34
BRANCH  11  35
ATOM     35  C   UNL     1     -62.101 -50.424 -19.092  0.00  0.00    +0.000 C 
BRANCH  35  36
ATOM     36  O   UNL     1     -61.236 -51.065 -18.131  0.00  0.00    +0.000 OA
BRANCH  36  38
ATOM     37  O   UNL     1     -59.227 -50.014 -17.806  0.00  0.00    +0.000 OA
ATOM     38  C   UNL     1     -59.912 -50.871 -18.339  0.00  0.00    +0.000 C 
BRANCH  38  39
ATOM     39  C   UNL     1     -59.356 -51.941 -19.216  0.00  0.00    +0.000 C 
ATOM     40  C   UNL     1     -59.305 -53.287 -18.550  0.00  0.00    +0.000 C 
ATOM     41  C   UNL     1     -58.920 -51.755 -20.477  0.00  0.00    +0.000 C 
ATOM     42  C   UNL     1     -58.809 -50.474 -21.242  0.00  0.00    +0.000 C 
ENDBRANCH  38  39
ENDBRANCH  36  38
ENDBRANCH  35  36
ENDBRANCH  11  35
TORSDOF 7
ENDMDL
MODEL 5
REMARK VINA RESULT:      -5.7     24.404     28.362
REMARK  Name = 
REMARK  14 active torsions:
REMARK  status: ('A' for Active; 'I' for Inactive)
REMARK    1  A    between atoms: O_1  and  C_24
REMARK    2  A    between atoms: O_1  and  C_36
REMARK    3  A    between atoms: O_4  and  C_30
REMARK    4  A    between atoms: O_4  and  C_37
REMARK    5  A    between atoms: O_7  and  C_33
REMARK    6  A    between atoms: O_7  and  C_38
REMARK    7  A    between atoms: N_10  and  C_23
REMARK    8  A    between atoms: C_15  and  C_26
REMARK    9  A    between atoms: C_16  and  C_24
REMARK   10  A    between atoms: C_31  and  C_34
REMARK   11  A    between atoms: C_32  and  C_35
REMARK   12  A    between atoms: C_36  and  C_39
REMARK   13  A    between atoms: C_39  and  C_40
REMARK   14  A    between atoms: C_41  and  C_42
REMARK                            x       y       z     vdW  Elec       q    Type
REMARK                         _______ _______ _______ _____ _____    ______ ____
ROOT
ATOM      1  O   UNL     1     -62.146 -61.977 -79.158  0.00  0.00    +0.000 OA
ATOM      2  O   UNL     1     -63.731 -60.905 -84.118  0.00  0.00    +0.000 OA
ATOM      3  O   UNL     1     -65.266 -61.287 -75.761  0.00  0.00    +0.000 OA
ATOM      4  O   UNL     1     -68.361 -57.368 -77.588  0.00  0.00    +0.000 OA
ATOM      5  N   UNL     1     -64.872 -58.301 -79.849  0.00  0.00    +0.000 NA
ATOM      6  N   UNL     1     -62.000 -58.020 -80.400  0.00  0.00    +0.000 NA
ATOM      7  C   UNL     1     -63.828 -58.835 -78.936  0.00  0.00    +0.000 C 
ATOM      8  C   UNL     1     -62.512 -59.247 -79.725  0.00  0.00    +0.000 C 
ATOM      9  C   UNL     1     -62.993 -57.585 -81.416  0.00  0.00    +0.000 C 
ATOM     10  C   UNL     1     -64.343 -57.193 -80.707  0.00  0.00    +0.000 C 
ATOM     11  C   UNL     1     -66.193 -57.998 -79.232  0.00  0.00    +0.000 C 
ATOM     12  C   UNL     1     -64.376 -60.015 -78.105  0.00  0.00    +0.000 C 
ATOM     13  C   UNL     1     -63.233 -58.671 -82.502  0.00  0.00    +0.000 C 
ATOM     14  C   UNL     1     -62.789 -60.358 -80.728  0.00  0.00    +0.000 C 
ATOM     15  C   UNL     1     -63.140 -60.087 -81.994  0.00  0.00    +0.000 C 
ATOM     16  C   UNL     1     -66.475 -58.729 -77.928  0.00  0.00    +0.000 C 
ATOM     17  C   UNL     1     -65.664 -59.666 -77.423  0.00  0.00    +0.000 C 
ATOM     18  C   UNL     1     -60.641 -58.159 -80.914  0.00  0.00    +0.000 C 
ATOM     19  C   UNL     1     -62.597 -61.755 -80.277  0.00  0.00    +0.000 C 
ATOM     20  C   UNL     1     -63.419 -61.168 -82.962  0.00  0.00    +0.000 C 
ATOM     21  C   UNL     1     -65.996 -60.395 -76.179  0.00  0.00    +0.000 C 
ATOM     22  C   UNL     1     -67.696 -58.317 -77.187  0.00  0.00    +0.000 C 
ATOM     23  C   UNL     1     -62.968 -62.858 -81.224  0.00  0.00    +0.000 C 
ATOM     24  C   UNL     1     -63.330 -62.573 -82.486  0.00  0.00    +0.000 C 
ATOM     25  C   UNL     1     -67.253 -60.039 -75.475  0.00  0.00    +0.000 C 
ATOM     26  C   UNL     1     -68.066 -59.082 -75.951  0.00  0.00    +0.000 C 
ATOM     27  C   UNL     1     -63.665 -63.611 -83.517  0.00  0.00    +0.000 C 
ATOM     28  C   UNL     1     -67.523 -60.827 -74.226  0.00  0.00    +0.000 C 
ENDROOT
BRANCH  23  29
ATOM     29  O   UNL     1     -62.884 -64.190 -80.835  0.00  0.00    +0.000 OA
ATOM     30  C   UNL     1     -64.095 -64.766 -80.353  0.00  0.00    +0.000 C 
ENDBRANCH  23  29
BRANCH  26  31
ATOM     31  O   UNL     1     -69.221 -58.768 -75.243  0.00  0.00    +0.000 OA
ATOM     32  C   UNL     1     -70.419 -59.348 -75.756  0.00  0.00    +0.000 C 
ENDBRANCH  26  31
BRANCH  10  34
ATOM     33  N   UNL     1     -64.025 -54.895 -79.420  0.00  0.00    +0.000 NA
ATOM     34  C   UNL     1     -64.145 -55.898 -79.993  0.00  0.00    +0.000 C 
ENDBRANCH  10  34
BRANCH  11  35
ATOM     35  C   UNL     1     -67.290 -58.343 -80.283  0.00  0.00    +0.000 C 
BRANCH  35  36
ATOM     36  O   UNL     1     -66.934 -59.571 -80.953  0.00  0.00    +0.000 OA
BRANCH  36  38
ATOM     37  O   UNL     1     -69.049 -60.431 -80.773  0.00  0.00    +0.000 OA
ATOM     38  C   UNL     1     -67.838 -60.570 -80.826  0.00  0.00    +0.000 C 
BRANCH  38  39
ATOM     39  C   UNL     1     -67.166 -61.899 -80.897  0.00  0.00    +0.000 C 
ATOM     40  C   UNL     1     -66.778 -62.440 -79.550  0.00  0.00    +0.000 C 
ATOM     41  C   UNL     1     -66.902 -62.571 -82.035  0.00  0.00    +0.000 C 
ATOM     42  C   UNL     1     -67.129 -62.130 -83.447  0.00  0.00    +0.000 C 
ENDBRANCH  38  39
ENDBRANCH  36  38
ENDBRANCH  35  36
ENDBRANCH  11  35
TORSDOF 7
ENDMDL
MODEL 6
REMARK VINA RESULT:      -5.7      2.582      7.383
REMARK  Name = 
REMARK  14 active torsions:
REMARK  status: ('A' for Active; 'I' for Inactive)
REMARK    1  A    between atoms: O_1  and  C_24
REMARK    2  A    between atoms: O_1  and  C_36
REMARK    3  A    between atoms: O_4  and  C_30
REMARK    4  A    between atoms: O_4  and  C_37
REMARK    5  A    between atoms: O_7  and  C_33
REMARK    6  A    between atoms: O_7  and  C_38
REMARK    7  A    between atoms: N_10  and  C_23
REMARK    8  A    between atoms: C_15  and  C_26
REMARK    9  A    between atoms: C_16  and  C_24
REMARK   10  A    between atoms: C_31  and  C_34
REMARK   11  A    between atoms: C_32  and  C_35
REMARK   12  A    between atoms: C_36  and  C_39
REMARK   13  A    between atoms: C_39  and  C_40
REMARK   14  A    between atoms: C_41  and  C_42
REMARK                            x       y       z     vdW  Elec       q    Type
REMARK                         _______ _______ _______ _____ _____    ______ ____
ROOT
ATOM      1  O   UNL     1     -63.505 -48.001 -52.319  0.00  0.00    +0.000 OA
ATOM      2  O   UNL     1     -68.256 -47.441 -49.999  0.00  0.00    +0.000 OA
ATOM      3  O   UNL     1     -63.126 -46.504 -56.719  0.00  0.00    +0.000 OA
ATOM      4  O   UNL     1     -68.008 -47.103 -58.741  0.00  0.00    +0.000 OA
ATOM      5  N   UNL     1     -67.296 -48.734 -54.870  0.00  0.00    +0.000 NA
ATOM      6  N   UNL     1     -66.372 -50.895 -53.108  0.00  0.00    +0.000 NA
ATOM      7  C   UNL     1     -65.864 -49.114 -54.757  0.00  0.00    +0.000 C 
ATOM      8  C   UNL     1     -65.521 -49.689 -53.316  0.00  0.00    +0.000 C 
ATOM      9  C   UNL     1     -67.796 -50.474 -53.074  0.00  0.00    +0.000 C 
ATOM     10  C   UNL     1     -68.201 -49.857 -54.466  0.00  0.00    +0.000 C 
ATOM     11  C   UNL     1     -67.702 -48.068 -56.139  0.00  0.00    +0.000 C 
ATOM     12  C   UNL     1     -64.949 -47.924 -55.118  0.00  0.00    +0.000 C 
ATOM     13  C   UNL     1     -68.084 -49.474 -51.921  0.00  0.00    +0.000 C 
ATOM     14  C   UNL     1     -65.757 -48.649 -52.230  0.00  0.00    +0.000 C 
ATOM     15  C   UNL     1     -66.941 -48.541 -51.610  0.00  0.00    +0.000 C 
ATOM     16  C   UNL     1     -66.568 -47.408 -56.908  0.00  0.00    +0.000 C 
ATOM     17  C   UNL     1     -65.319 -47.318 -56.437  0.00  0.00    +0.000 C 
ATOM     18  C   UNL     1     -65.964 -51.710 -51.968  0.00  0.00    +0.000 C 
ATOM     19  C   UNL     1     -64.613 -47.796 -51.834  0.00  0.00    +0.000 C 
ATOM     20  C   UNL     1     -67.171 -47.522 -50.564  0.00  0.00    +0.000 C 
ATOM     21  C   UNL     1     -64.252 -46.623 -57.190  0.00  0.00    +0.000 C 
ATOM     22  C   UNL     1     -66.896 -46.897 -58.265  0.00  0.00    +0.000 C 
ATOM     23  C   UNL     1     -64.864 -46.699 -50.842  0.00  0.00    +0.000 C 
ATOM     24  C   UNL     1     -66.057 -46.594 -50.236  0.00  0.00    +0.000 C 
ATOM     25  C   UNL     1     -64.594 -46.043 -58.513  0.00  0.00    +0.000 C 
ATOM     26  C   UNL     1     -65.835 -46.149 -59.016  0.00  0.00    +0.000 C 
ATOM     27  C   UNL     1     -66.381 -45.565 -49.192  0.00  0.00    +0.000 C 
ATOM     28  C   UNL     1     -63.461 -45.348 -59.211  0.00  0.00    +0.000 C 
ENDROOT
BRANCH  23  29
ATOM     29  O   UNL     1     -63.851 -45.816 -50.486  0.00  0.00    +0.000 OA
ATOM     30  C   UNL     1     -62.873 -46.333 -49.587  0.00  0.00    +0.000 C 
ENDBRANCH  23  29
BRANCH  26  31
ATOM     31  O   UNL     1     -66.101 -45.610 -60.270  0.00  0.00    +0.000 OA
ATOM     32  C   UNL     1     -66.793 -44.363 -60.256  0.00  0.00    +0.000 C 
ENDBRANCH  26  31
BRANCH  10  34
ATOM     33  N   UNL     1     -68.364 -51.846 -56.214  0.00  0.00    +0.000 NA
ATOM     34  C   UNL     1     -68.299 -50.962 -55.464  0.00  0.00    +0.000 C 
ENDBRANCH  10  34
BRANCH  11  35
ATOM     35  C   UNL     1     -68.790 -47.011 -55.784  0.00  0.00    +0.000 C 
BRANCH  35  36
ATOM     36  O   UNL     1     -68.464 -46.402 -54.517  0.00  0.00    +0.000 OA
BRANCH  36  38
ATOM     37  O   UNL     1     -68.425 -44.335 -55.503  0.00  0.00    +0.000 OA
ATOM     38  C   UNL     1     -68.150 -45.087 -54.583  0.00  0.00    +0.000 C 
BRANCH  38  39
ATOM     39  C   UNL     1     -67.530 -44.631 -53.306  0.00  0.00    +0.000 C 
ATOM     40  C   UNL     1     -68.522 -44.471 -52.188  0.00  0.00    +0.000 C 
ATOM     41  C   UNL     1     -66.220 -44.364 -53.136  0.00  0.00    +0.000 C 
ATOM     42  C   UNL     1     -65.130 -44.375 -54.161  0.00  0.00    +0.000 C 
ENDBRANCH  38  39
ENDBRANCH  36  38
ENDBRANCH  35  36
ENDBRANCH  11  35
TORSDOF 7
ENDMDL
MODEL 7
REMARK VINA RESULT:      -5.5      2.727      6.884
REMARK  Name = 
REMARK  14 active torsions:
REMARK  status: ('A' for Active; 'I' for Inactive)
REMARK    1  A    between atoms: O_1  and  C_24
REMARK    2  A    between atoms: O_1  and  C_36
REMARK    3  A    between atoms: O_4  and  C_30
REMARK    4  A    between atoms: O_4  and  C_37
REMARK    5  A    between atoms: O_7  and  C_33
REMARK    6  A    between atoms: O_7  and  C_38
REMARK    7  A    between atoms: N_10  and  C_23
REMARK    8  A    between atoms: C_15  and  C_26
REMARK    9  A    between atoms: C_16  and  C_24
REMARK   10  A    between atoms: C_31  and  C_34
REMARK   11  A    between atoms: C_32  and  C_35
REMARK   12  A    between atoms: C_36  and  C_39
REMARK   13  A    between atoms: C_39  and  C_40
REMARK   14  A    between atoms: C_41  and  C_42
REMARK                            x       y       z     vdW  Elec       q    Type
REMARK                         _______ _______ _______ _____ _____    ______ ____
ROOT
ATOM      1  O   UNL     1     -60.924 -44.041 -51.580  0.00  0.00    +0.000 OA
ATOM      2  O   UNL     1     -58.358 -42.953 -56.107  0.00  0.00    +0.000 OA
ATOM      3  O   UNL     1     -63.948 -47.589 -51.681  0.00  0.00    +0.000 OA
ATOM      4  O   UNL     1     -65.685 -47.701 -56.705  0.00  0.00    +0.000 OA
ATOM      5  N   UNL     1     -63.250 -44.395 -55.565  0.00  0.00    +0.000 NA
ATOM      6  N   UNL     1     -62.907 -41.724 -54.394  0.00  0.00    +0.000 NA
ATOM      7  C   UNL     1     -63.437 -44.130 -54.115  0.00  0.00    +0.000 C 
ATOM      8  C   UNL     1     -62.520 -42.934 -53.614  0.00  0.00    +0.000 C 
ATOM      9  C   UNL     1     -62.574 -41.951 -55.824  0.00  0.00    +0.000 C 
ATOM     10  C   UNL     1     -63.425 -43.153 -56.383  0.00  0.00    +0.000 C 
ATOM     11  C   UNL     1     -63.971 -45.577 -56.116  0.00  0.00    +0.000 C 
ATOM     12  C   UNL     1     -63.193 -45.409 -53.286  0.00  0.00    +0.000 C 
ATOM     13  C   UNL     1     -61.056 -42.200 -56.040  0.00  0.00    +0.000 C 
ATOM     14  C   UNL     1     -61.042 -43.256 -53.786  0.00  0.00    +0.000 C 
ATOM     15  C   UNL     1     -60.382 -42.936 -54.909  0.00  0.00    +0.000 C 
ATOM     16  C   UNL     1     -64.361 -46.627 -55.087  0.00  0.00    +0.000 C 
ATOM     17  C   UNL     1     -63.989 -46.568 -53.803  0.00  0.00    +0.000 C 
ATOM     18  C   UNL     1     -62.374 -40.480 -53.848  0.00  0.00    +0.000 C 
ATOM     19  C   UNL     1     -60.336 -43.880 -52.644  0.00  0.00    +0.000 C 
ATOM     20  C   UNL     1     -58.950 -43.260 -55.078  0.00  0.00    +0.000 C 
ATOM     21  C   UNL     1     -64.344 -47.635 -52.840  0.00  0.00    +0.000 C 
ATOM     22  C   UNL     1     -65.241 -47.727 -55.562  0.00  0.00    +0.000 C 
ATOM     23  C   UNL     1     -58.908 -44.296 -52.842  0.00  0.00    +0.000 C 
ATOM     24  C   UNL     1     -58.262 -43.981 -53.976  0.00  0.00    +0.000 C 
ATOM     25  C   UNL     1     -65.158 -48.775 -53.329  0.00  0.00    +0.000 C 
ATOM     26  C   UNL     1     -65.566 -48.837 -54.607  0.00  0.00    +0.000 C 
ATOM     27  C   UNL     1     -56.820 -44.307 -54.239  0.00  0.00    +0.000 C 
ATOM     28  C   UNL     1     -65.470 -49.818 -52.296  0.00  0.00    +0.000 C 
ENDROOT
BRANCH  23  29
ATOM     29  O   UNL     1     -58.213 -44.957 -51.835  0.00  0.00    +0.000 OA
ATOM     30  C   UNL     1     -57.647 -44.120 -50.830  0.00  0.00    +0.000 C 
ENDBRANCH  23  29
BRANCH  26  31
ATOM     31  O   UNL     1     -66.348 -49.914 -55.013  0.00  0.00    +0.000 OA
ATOM     32  C   UNL     1     -67.754 -49.675 -55.004  0.00  0.00    +0.000 C 
ENDBRANCH  26  31
BRANCH  10  34
ATOM     33  N   UNL     1     -65.942 -42.371 -56.683  0.00  0.00    +0.000 NA
ATOM     34  C   UNL     1     -64.840 -42.704 -56.532  0.00  0.00    +0.000 C 
ENDBRANCH  10  34
BRANCH  11  35
ATOM     35  C   UNL     1     -63.058 -46.214 -57.206  0.00  0.00    +0.000 C 
BRANCH  35  36
ATOM     36  O   UNL     1     -63.152 -45.435 -58.417  0.00  0.00    +0.000 OA
BRANCH  36  38
ATOM     37  O   UNL     1     -65.248 -45.034 -59.248  0.00  0.00    +0.000 OA
ATOM     38  C   UNL     1     -64.233 -45.707 -59.185  0.00  0.00    +0.000 C 
BRANCH  38  39
ATOM     39  C   UNL     1     -63.970 -46.882 -60.065  0.00  0.00    +0.000 C 
ATOM     40  C   UNL     1     -65.116 -47.852 -60.118  0.00  0.00    +0.000 C 
ATOM     41  C   UNL     1     -62.827 -47.095 -60.746  0.00  0.00    +0.000 C 
ATOM     42  C   UNL     1     -61.567 -46.289 -60.721  0.00  0.00    +0.000 C 
ENDBRANCH  38  39
ENDBRANCH  36  38
ENDBRANCH  35  36
ENDBRANCH  11  35
TORSDOF 7
ENDMDL
MODEL 8
REMARK VINA RESULT:      -5.4     19.032     22.382
REMARK  Name = 
REMARK  14 active torsions:
REMARK  status: ('A' for Active; 'I' for Inactive)
REMARK    1  A    between atoms: O_1  and  C_24
REMARK    2  A    between atoms: O_1  and  C_36
REMARK    3  A    between atoms: O_4  and  C_30
REMARK    4  A    between atoms: O_4  and  C_37
REMARK    5  A    between atoms: O_7  and  C_33
REMARK    6  A    between atoms: O_7  and  C_38
REMARK    7  A    between atoms: N_10  and  C_23
REMARK    8  A    between atoms: C_15  and  C_26
REMARK    9  A    between atoms: C_16  and  C_24
REMARK   10  A    between atoms: C_31  and  C_34
REMARK   11  A    between atoms: C_32  and  C_35
REMARK   12  A    between atoms: C_36  and  C_39
REMARK   13  A    between atoms: C_39  and  C_40
REMARK   14  A    between atoms: C_41  and  C_42
REMARK                            x       y       z     vdW  Elec       q    Type
REMARK                         _______ _______ _______ _____ _____    ______ ____
ROOT
ATOM      1  O   UNL     1     -63.292 -63.050 -71.115  0.00  0.00    +0.000 OA
ATOM      2  O   UNL     1     -66.692 -65.375 -74.477  0.00  0.00    +0.000 OA
ATOM      3  O   UNL     1     -65.043 -61.545 -67.063  0.00  0.00    +0.000 OA
ATOM      4  O   UNL     1     -70.104 -60.351 -68.175  0.00  0.00    +0.000 OA
ATOM      5  N   UNL     1     -67.570 -61.320 -71.461  0.00  0.00    +0.000 NA
ATOM      6  N   UNL     1     -65.605 -60.576 -73.513  0.00  0.00    +0.000 NA
ATOM      7  C   UNL     1     -66.172 -60.941 -71.127  0.00  0.00    +0.000 C 
ATOM      8  C   UNL     1     -65.166 -61.318 -72.297  0.00  0.00    +0.000 C 
ATOM      9  C   UNL     1     -66.943 -61.075 -73.920  0.00  0.00    +0.000 C 
ATOM     10  C   UNL     1     -67.993 -60.766 -72.787  0.00  0.00    +0.000 C 
ATOM     11  C   UNL     1     -68.580 -61.123 -70.384  0.00  0.00    +0.000 C 
ATOM     12  C   UNL     1     -65.737 -61.572 -69.787  0.00  0.00    +0.000 C 
ATOM     13  C   UNL     1     -66.925 -62.591 -74.259  0.00  0.00    +0.000 C 
ATOM     14  C   UNL     1     -65.137 -62.820 -72.543  0.00  0.00    +0.000 C 
ATOM     15  C   UNL     1     -65.961 -63.400 -73.429  0.00  0.00    +0.000 C 
ATOM     16  C   UNL     1     -68.013 -61.067 -68.975  0.00  0.00    +0.000 C 
ATOM     17  C   UNL     1     -66.724 -61.294 -68.694  0.00  0.00    +0.000 C 
ATOM     18  C   UNL     1     -64.616 -60.576 -74.587  0.00  0.00    +0.000 C 
ATOM     19  C   UNL     1     -64.123 -63.617 -71.817  0.00  0.00    +0.000 C 
ATOM     20  C   UNL     1     -65.938 -64.860 -73.658  0.00  0.00    +0.000 C 
ATOM     21  C   UNL     1     -66.216 -61.282 -67.305  0.00  0.00    +0.000 C 
ATOM     22  C   UNL     1     -68.958 -60.688 -67.893  0.00  0.00    +0.000 C 
ATOM     23  C   UNL     1     -64.156 -65.109 -71.973  0.00  0.00    +0.000 C 
ATOM     24  C   UNL     1     -64.993 -65.679 -72.855  0.00  0.00    +0.000 C 
ATOM     25  C   UNL     1     -67.174 -60.978 -66.213  0.00  0.00    +0.000 C 
ATOM     26  C   UNL     1     -68.465 -60.719 -66.477  0.00  0.00    +0.000 C 
ATOM     27  C   UNL     1     -65.057 -67.155 -73.117  0.00  0.00    +0.000 C 
ATOM     28  C   UNL     1     -66.585 -60.992 -64.832  0.00  0.00    +0.000 C 
ENDROOT
BRANCH  23  29
ATOM     29  O   UNL     1     -63.280 -65.919 -71.259  0.00  0.00    +0.000 OA
ATOM     30  C   UNL     1     -61.967 -66.031 -71.802  0.00  0.00    +0.000 C 
ENDBRANCH  23  29
BRANCH  26  31
ATOM     31  O   UNL     1     -69.320 -60.417 -65.422  0.00  0.00    +0.000 OA
ATOM     32  C   UNL     1     -69.482 -59.025 -65.157  0.00  0.00    +0.000 C 
ENDBRANCH  26  31
BRANCH  10  34
ATOM     33  N   UNL     1     -68.501 -58.163 -72.747  0.00  0.00    +0.000 NA
ATOM     34  C   UNL     1     -68.271 -59.300 -72.785  0.00  0.00    +0.000 C 
ENDBRANCH  10  34
BRANCH  11  35
ATOM     35  C   UNL     1     -69.613 -62.285 -70.495  0.00  0.00    +0.000 C 
BRANCH  35  36
ATOM     36  O   UNL     1     -68.921 -63.502 -70.843  0.00  0.00    +0.000 OA
BRANCH  36  38
ATOM     37  O   UNL     1     -70.113 -65.350 -70.202  0.00  0.00    +0.000 OA
ATOM     38  C   UNL     1     -69.196 -64.561 -70.045  0.00  0.00    +0.000 C 
BRANCH  38  39
ATOM     39  C   UNL     1     -68.139 -64.725 -69.007  0.00  0.00    +0.000 C 
ATOM     40  C   UNL     1     -66.813 -65.152 -69.571  0.00  0.00    +0.000 C 
ATOM     41  C   UNL     1     -68.320 -64.533 -67.685  0.00  0.00    +0.000 C 
ATOM     42  C   UNL     1     -69.587 -64.209 -66.959  0.00  0.00    +0.000 C 
ENDBRANCH  38  39
ENDBRANCH  36  38
ENDBRANCH  35  36
ENDBRANCH  11  35
TORSDOF 7
ENDMDL
MODEL 9
REMARK VINA RESULT:      -5.4     14.057     17.271
REMARK  Name = 
REMARK  14 active torsions:
REMARK  status: ('A' for Active; 'I' for Inactive)
REMARK    1  A    between atoms: O_1  and  C_24
REMARK    2  A    between atoms: O_1  and  C_36
REMARK    3  A    between atoms: O_4  and  C_30
REMARK    4  A    between atoms: O_4  and  C_37
REMARK    5  A    between atoms: O_7  and  C_33
REMARK    6  A    between atoms: O_7  and  C_38
REMARK    7  A    between atoms: N_10  and  C_23
REMARK    8  A    between atoms: C_15  and  C_26
REMARK    9  A    between atoms: C_16  and  C_24
REMARK   10  A    between atoms: C_31  and  C_34
REMARK   11  A    between atoms: C_32  and  C_35
REMARK   12  A    between atoms: C_36  and  C_39
REMARK   13  A    between atoms: C_39  and  C_40
REMARK   14  A    between atoms: C_41  and  C_42
REMARK                            x       y       z     vdW  Elec       q    Type
REMARK                         _______ _______ _______ _____ _____    ______ ____
ROOT
ATOM      1  O   UNL     1     -57.202 -56.045 -61.008  0.00  0.00    +0.000 OA
ATOM      2  O   UNL     1     -60.444 -58.417 -57.525  0.00  0.00    +0.000 OA
ATOM      3  O   UNL     1     -56.366 -58.325 -64.988  0.00  0.00    +0.000 OA
ATOM      4  O   UNL     1     -56.812 -63.461 -63.686  0.00  0.00    +0.000 OA
ATOM      5  N   UNL     1     -56.901 -60.634 -60.499  0.00  0.00    +0.000 NA
ATOM      6  N   UNL     1     -55.556 -58.930 -58.521  0.00  0.00    +0.000 NA
ATOM      7  C   UNL     1     -56.106 -59.440 -60.884  0.00  0.00    +0.000 C 
ATOM      8  C   UNL     1     -56.136 -58.325 -59.754  0.00  0.00    +0.000 C 
ATOM      9  C   UNL     1     -56.447 -60.028 -58.064  0.00  0.00    +0.000 C 
ATOM     10  C   UNL     1     -56.495 -61.162 -59.157  0.00  0.00    +0.000 C 
ATOM     11  C   UNL     1     -57.044 -61.693 -61.537  0.00  0.00    +0.000 C 
ATOM     12  C   UNL     1     -56.581 -58.877 -62.240  0.00  0.00    +0.000 C 
ATOM     13  C   UNL     1     -57.877 -59.522 -57.729  0.00  0.00    +0.000 C 
ATOM     14  C   UNL     1     -57.550 -57.816 -59.511  0.00  0.00    +0.000 C 
ATOM     15  C   UNL     1     -58.351 -58.383 -58.596  0.00  0.00    +0.000 C 
ATOM     16  C   UNL     1     -56.826 -61.224 -62.967  0.00  0.00    +0.000 C 
ATOM     17  C   UNL     1     -56.639 -59.940 -63.295  0.00  0.00    +0.000 C 
ATOM     18  C   UNL     1     -55.235 -57.954 -57.484  0.00  0.00    +0.000 C 
ATOM     19  C   UNL     1     -57.995 -56.629 -60.276  0.00  0.00    +0.000 C 
ATOM     20  C   UNL     1     -59.727 -57.894 -58.371  0.00  0.00    +0.000 C 
ATOM     21  C   UNL     1     -56.482 -59.512 -64.703  0.00  0.00    +0.000 C 
ATOM     22  C   UNL     1     -56.774 -62.279 -64.012  0.00  0.00    +0.000 C 
ATOM     23  C   UNL     1     -59.420 -56.186 -60.121  0.00  0.00    +0.000 C 
ATOM     24  C   UNL     1     -60.215 -56.769 -59.210  0.00  0.00    +0.000 C 
ATOM     25  C   UNL     1     -56.506 -60.556 -65.758  0.00  0.00    +0.000 C 
ATOM     26  C   UNL     1     -56.663 -61.852 -65.445  0.00  0.00    +0.000 C 
ATOM     27  C   UNL     1     -61.634 -56.356 -58.948  0.00  0.00    +0.000 C 
ATOM     28  C   UNL     1     -56.348 -60.042 -67.160  0.00  0.00    +0.000 C 
ENDROOT
BRANCH  23  29
ATOM     29  O   UNL     1     -59.921 -55.126 -60.869  0.00  0.00    +0.000 OA
ATOM     30  C   UNL     1     -59.605 -53.825 -60.378  0.00  0.00    +0.000 C 
ENDBRANCH  23  29
BRANCH  26  31
ATOM     31  O   UNL     1     -56.656 -62.796 -66.467  0.00  0.00    +0.000 OA
ATOM     32  C   UNL     1     -55.392 -63.410 -66.711  0.00  0.00    +0.000 C 
ENDBRANCH  26  31
BRANCH  10  34
ATOM     33  N   UNL     1     -54.163 -62.425 -59.161  0.00  0.00    +0.000 NA
ATOM     34  C   UNL     1     -55.191 -61.887 -59.146  0.00  0.00    +0.000 C 
ENDBRANCH  10  34
BRANCH  11  35
ATOM     35  C   UNL     1     -58.470 -62.304 -61.389  0.00  0.00    +0.000 C 
BRANCH  35  36
ATOM     36  O   UNL     1     -59.398 -61.258 -61.032  0.00  0.00    +0.000 OA
BRANCH  36  38
ATOM     37  O   UNL     1     -61.566 -61.714 -61.614  0.00  0.00    +0.000 OA
ATOM     38  C   UNL     1     -60.492 -61.174 -61.824  0.00  0.00    +0.000 C 
BRANCH  38  39
ATOM     39  C   UNL     1     -60.261 -60.212 -62.939  0.00  0.00    +0.000 C 
ATOM     40  C   UNL     1     -60.116 -58.789 -62.476  0.00  0.00    +0.000 C 
ATOM     41  C   UNL     1     -60.198 -60.543 -64.244  0.00  0.00    +0.000 C 
ATOM     42  C   UNL     1     -60.421 -61.882 -64.873  0.00  0.00    +0.000 C 
ENDBRANCH  38  39
ENDBRANCH  36  38
ENDBRANCH  35  36
ENDBRANCH  11  35
TORSDOF 7
ENDMDL
