MODEL 1
REMARK VINA RESULT:      -5.1      0.000      0.000
REMARK  Name = Resveratrol.pdbqt.pdb
REMARK  5 active torsions:
REMARK  status: ('A' for Active; 'I' for Inactive)
REMARK    1  A    between atoms: C_1  and  C_11
REMARK    2  A    between atoms: C_4  and  O_7
REMARK    3  A    between atoms: C_5  and  O_9
REMARK    4  A    between atoms: C_12  and  C_13
REMARK    5  A    between atoms: C_18  and  O_19
REMARK                            x       y       z     vdW  Elec       q    Type
REMARK                         _______ _______ _______ _____ _____    ______ ____
ROOT
ATOM      1  C   UNL     1     -72.581 -58.539 -24.183  0.00  0.00    +0.000 A 
ATOM      2  C   UNL     1     -72.284 -57.972 -25.421  0.00  0.00    +0.000 A 
ATOM      3  C   UNL     1     -72.467 -59.916 -23.996  0.00  0.00    +0.000 A 
ATOM      4  C   UNL     1     -72.053 -60.719 -25.057  0.00  0.00    +0.000 A 
ATOM      5  C   UNL     1     -71.873 -58.791 -26.468  0.00  0.00    +0.000 A 
ATOM      6  C   UNL     1     -71.753 -60.167 -26.297  0.00  0.00    +0.000 A 
ENDROOT
BRANCH   4   7
ATOM      7  O   UNL     1     -71.932 -62.069 -24.903  0.00  0.00    +0.000 OA
ATOM      8  H   UNL     1     -72.803 -62.426 -24.654  0.00  0.00    +0.000 HD
ENDBRANCH   4   7
BRANCH   5   9
ATOM      9  O   UNL     1     -71.587 -58.213 -27.671  0.00  0.00    +0.000 OA
ATOM     10  H   UNL     1     -70.672 -58.448 -27.908  0.00  0.00    +0.000 HD
ENDBRANCH   5   9
BRANCH   1  11
ATOM     11  C   UNL     1     -73.004 -57.710 -23.102  0.00  0.00    +0.000 C 
ATOM     12  C   UNL     1     -73.362 -57.012 -22.192  0.00  0.00    +0.000 C 
BRANCH  12  13
ATOM     13  C   UNL     1     -73.785 -56.184 -21.112  0.00  0.00    +0.000 A 
ATOM     14  C   UNL     1     -72.839 -55.615 -20.259  0.00  0.00    +0.000 A 
ATOM     15  C   UNL     1     -75.145 -55.944 -20.910  0.00  0.00    +0.000 A 
ATOM     16  C   UNL     1     -73.251 -54.806 -19.204  0.00  0.00    +0.000 A 
ATOM     17  C   UNL     1     -75.560 -55.136 -19.856  0.00  0.00    +0.000 A 
ATOM     18  C   UNL     1     -74.609 -54.574 -19.010  0.00  0.00    +0.000 A 
BRANCH  18  19
ATOM     19  O   UNL     1     -75.040 -53.785 -17.984  0.00  0.00    +0.000 OA
ATOM     20  H   UNL     1     -74.934 -54.280 -17.153  0.00  0.00    +0.000 HD
ENDBRANCH  18  19
ENDBRANCH  12  13
ENDBRANCH   1  11
TORSDOF 5
ENDMDL
MODEL 2
REMARK VINA RESULT:      -5.1     11.940     15.613
REMARK  Name = Resveratrol.pdbqt.pdb
REMARK  5 active torsions:
REMARK  status: ('A' for Active; 'I' for Inactive)
REMARK    1  A    between atoms: C_1  and  C_11
REMARK    2  A    between atoms: C_4  and  O_7
REMARK    3  A    between atoms: C_5  and  O_9
REMARK    4  A    between atoms: C_12  and  C_13
REMARK    5  A    between atoms: C_18  and  O_19
REMARK                            x       y       z     vdW  Elec       q    Type
REMARK                         _______ _______ _______ _____ _____    ______ ____
ROOT
ATOM      1  C   UNL     1     -67.605 -56.150 -38.835  0.00  0.00    +0.000 A 
ATOM      2  C   UNL     1     -67.541 -57.166 -39.789  0.00  0.00    +0.000 A 
ATOM      3  C   UNL     1     -67.275 -54.841 -39.182  0.00  0.00    +0.000 A 
ATOM      4  C   UNL     1     -66.883 -54.556 -40.488  0.00  0.00    +0.000 A 
ATOM      5  C   UNL     1     -67.146 -56.861 -41.087  0.00  0.00    +0.000 A 
ATOM      6  C   UNL     1     -66.815 -55.559 -41.449  0.00  0.00    +0.000 A 
ENDROOT
BRANCH   4   7
ATOM      7  O   UNL     1     -66.555 -53.284 -40.856  0.00  0.00    +0.000 OA
ATOM      8  H   UNL     1     -67.194 -52.674 -40.444  0.00  0.00    +0.000 HD
ENDBRANCH   4   7
BRANCH   5   9
ATOM      9  O   UNL     1     -67.092 -57.871 -42.004  0.00  0.00    +0.000 OA
ATOM     10  H   UNL     1     -66.344 -57.695 -42.601  0.00  0.00    +0.000 HD
ENDBRANCH   5   9
BRANCH   1  11
ATOM     11  C   UNL     1     -68.007 -56.450 -37.500  0.00  0.00    +0.000 C 
ATOM     12  C   UNL     1     -68.346 -56.704 -36.376  0.00  0.00    +0.000 C 
BRANCH  12  13
ATOM     13  C   UNL     1     -68.748 -57.005 -35.041  0.00  0.00    +0.000 A 
ATOM     14  C   UNL     1     -67.874 -57.676 -34.187  0.00  0.00    +0.000 A 
ATOM     15  C   UNL     1     -70.014 -56.627 -34.594  0.00  0.00    +0.000 A 
ATOM     16  C   UNL     1     -68.263 -57.971 -32.884  0.00  0.00    +0.000 A 
ATOM     17  C   UNL     1     -70.407 -56.920 -33.291  0.00  0.00    +0.000 A 
ATOM     18  C   UNL     1     -69.529 -57.590 -32.446  0.00  0.00    +0.000 A 
BRANCH  18  19
ATOM     19  O   UNL     1     -69.937 -57.867 -31.174  0.00  0.00    +0.000 OA
ATOM     20  H   UNL     1     -70.737 -58.419 -31.223  0.00  0.00    +0.000 HD
ENDBRANCH  18  19
ENDBRANCH  12  13
ENDBRANCH   1  11
TORSDOF 5
ENDMDL
MODEL 3
REMARK VINA RESULT:      -5.1      0.055      2.008
REMARK  Name = Resveratrol.pdbqt.pdb
REMARK  5 active torsions:
REMARK  status: ('A' for Active; 'I' for Inactive)
REMARK    1  A    between atoms: C_1  and  C_11
REMARK    2  A    between atoms: C_4  and  O_7
REMARK    3  A    between atoms: C_5  and  O_9
REMARK    4  A    between atoms: C_12  and  C_13
REMARK    5  A    between atoms: C_18  and  O_19
REMARK                            x       y       z     vdW  Elec       q    Type
REMARK                         _______ _______ _______ _____ _____    ______ ____
ROOT
ATOM      1  C   UNL     1     -72.596 -58.563 -24.228  0.00  0.00    +0.000 A 
ATOM      2  C   UNL     1     -72.470 -59.939 -24.042  0.00  0.00    +0.000 A 
ATOM      3  C   UNL     1     -72.315 -57.993 -25.469  0.00  0.00    +0.000 A 
ATOM      4  C   UNL     1     -71.908 -58.810 -26.521  0.00  0.00    +0.000 A 
ATOM      5  C   UNL     1     -72.062 -60.738 -25.106  0.00  0.00    +0.000 A 
ATOM      6  C   UNL     1     -71.779 -60.184 -26.351  0.00  0.00    +0.000 A 
ENDROOT
BRANCH   4   7
ATOM      7  O   UNL     1     -71.627 -58.280 -27.747  0.00  0.00    +0.000 OA
ATOM      8  H   UNL     1     -72.434 -57.853 -28.085  0.00  0.00    +0.000 HD
ENDBRANCH   4   7
BRANCH   5   9
ATOM      9  O   UNL     1     -71.946 -62.083 -24.902  0.00  0.00    +0.000 OA
ATOM     10  H   UNL     1     -71.744 -62.227 -23.960  0.00  0.00    +0.000 HD
ENDBRANCH   5   9
BRANCH   1  11
ATOM     11  C   UNL     1     -73.012 -57.734 -23.145  0.00  0.00    +0.000 C 
ATOM     12  C   UNL     1     -73.364 -57.035 -22.233  0.00  0.00    +0.000 C 
BRANCH  12  13
ATOM     13  C   UNL     1     -73.781 -56.207 -21.149  0.00  0.00    +0.000 A 
ATOM     14  C   UNL     1     -72.829 -55.635 -20.305  0.00  0.00    +0.000 A 
ATOM     15  C   UNL     1     -75.139 -55.971 -20.936  0.00  0.00    +0.000 A 
ATOM     16  C   UNL     1     -73.233 -54.826 -19.248  0.00  0.00    +0.000 A 
ATOM     17  C   UNL     1     -75.547 -55.162 -19.879  0.00  0.00    +0.000 A 
ATOM     18  C   UNL     1     -74.590 -54.596 -19.043  0.00  0.00    +0.000 A 
BRANCH  18  19
ATOM     19  O   UNL     1     -75.015 -53.807 -18.013  0.00  0.00    +0.000 OA
ATOM     20  H   UNL     1     -74.644 -54.160 -17.186  0.00  0.00    +0.000 HD
ENDBRANCH  18  19
ENDBRANCH  12  13
ENDBRANCH   1  11
TORSDOF 5
ENDMDL
MODEL 4
REMARK VINA RESULT:      -5.1     11.548     16.324
REMARK  Name = Resveratrol.pdbqt.pdb
REMARK  5 active torsions:
REMARK  status: ('A' for Active; 'I' for Inactive)
REMARK    1  A    between atoms: C_1  and  C_11
REMARK    2  A    between atoms: C_4  and  O_7
REMARK    3  A    between atoms: C_5  and  O_9
REMARK    4  A    between atoms: C_12  and  C_13
REMARK    5  A    between atoms: C_18  and  O_19
REMARK                            x       y       z     vdW  Elec       q    Type
REMARK                         _______ _______ _______ _____ _____    ______ ____
ROOT
ATOM      1  C   UNL     1     -68.565 -57.052 -34.938  0.00  0.00    +0.000 A 
ATOM      2  C   UNL     1     -69.811 -56.676 -34.436  0.00  0.00    +0.000 A 
ATOM      3  C   UNL     1     -67.638 -57.686 -34.112  0.00  0.00    +0.000 A 
ATOM      4  C   UNL     1     -67.968 -57.943 -32.783  0.00  0.00    +0.000 A 
ATOM      5  C   UNL     1     -70.120 -56.941 -33.106  0.00  0.00    +0.000 A 
ATOM      6  C   UNL     1     -69.207 -57.575 -32.270  0.00  0.00    +0.000 A 
ENDROOT
BRANCH   4   7
ATOM      7  O   UNL     1     -67.080 -58.563 -31.952  0.00  0.00    +0.000 OA
ATOM      8  H   UNL     1     -67.566 -59.227 -31.431  0.00  0.00    +0.000 HD
ENDBRANCH   4   7
BRANCH   5   9
ATOM      9  O   UNL     1     -71.346 -56.565 -32.637  0.00  0.00    +0.000 OA
ATOM     10  H   UNL     1     -71.794 -57.360 -32.297  0.00  0.00    +0.000 HD
ENDBRANCH   5   9
BRANCH   1  11
ATOM     11  C   UNL     1     -68.236 -56.785 -36.300  0.00  0.00    +0.000 C 
ATOM     12  C   UNL     1     -67.958 -56.561 -37.447  0.00  0.00    +0.000 C 
BRANCH  12  13
ATOM     13  C   UNL     1     -67.630 -56.294 -38.809  0.00  0.00    +0.000 A 
ATOM     14  C   UNL     1     -67.286 -55.000 -39.200  0.00  0.00    +0.000 A 
ATOM     15  C   UNL     1     -67.653 -57.327 -39.746  0.00  0.00    +0.000 A 
ATOM     16  C   UNL     1     -66.964 -54.737 -40.528  0.00  0.00    +0.000 A 
ATOM     17  C   UNL     1     -67.333 -57.068 -41.075  0.00  0.00    +0.000 A 
ATOM     18  C   UNL     1     -66.991 -55.774 -41.456  0.00  0.00    +0.000 A 
BRANCH  18  19
ATOM     19  O   UNL     1     -66.681 -55.545 -42.765  0.00  0.00    +0.000 OA
ATOM     20  H   UNL     1     -66.728 -56.392 -43.243  0.00  0.00    +0.000 HD
ENDBRANCH  18  19
ENDBRANCH  12  13
ENDBRANCH   1  11
TORSDOF 5
ENDMDL
MODEL 5
REMARK VINA RESULT:      -5.1     11.516     16.337
REMARK  Name = Resveratrol.pdbqt.pdb
REMARK  5 active torsions:
REMARK  status: ('A' for Active; 'I' for Inactive)
REMARK    1  A    between atoms: C_1  and  C_11
REMARK    2  A    between atoms: C_4  and  O_7
REMARK    3  A    between atoms: C_5  and  O_9
REMARK    4  A    between atoms: C_12  and  C_13
REMARK    5  A    between atoms: C_18  and  O_19
REMARK                            x       y       z     vdW  Elec       q    Type
REMARK                         _______ _______ _______ _____ _____    ______ ____
ROOT
ATOM      1  C   UNL     1     -68.581 -57.057 -34.907  0.00  0.00    +0.000 A 
ATOM      2  C   UNL     1     -67.659 -57.693 -34.078  0.00  0.00    +0.000 A 
ATOM      3  C   UNL     1     -69.829 -56.681 -34.411  0.00  0.00    +0.000 A 
ATOM      4  C   UNL     1     -70.145 -56.945 -33.081  0.00  0.00    +0.000 A 
ATOM      5  C   UNL     1     -67.995 -57.948 -32.752  0.00  0.00    +0.000 A 
ATOM      6  C   UNL     1     -69.235 -57.578 -32.242  0.00  0.00    +0.000 A 
ENDROOT
BRANCH   4   7
ATOM      7  O   UNL     1     -71.358 -56.587 -32.568  0.00  0.00    +0.000 OA
ATOM      8  H   UNL     1     -71.362 -55.621 -32.443  0.00  0.00    +0.000 HD
ENDBRANCH   4   7
BRANCH   5   9
ATOM      9  O   UNL     1     -67.075 -58.572 -31.958  0.00  0.00    +0.000 OA
ATOM     10  H   UNL     1     -66.566 -59.188 -32.514  0.00  0.00    +0.000 HD
ENDBRANCH   5   9
BRANCH   1  11
ATOM     11  C   UNL     1     -68.250 -56.791 -36.269  0.00  0.00    +0.000 C 
ATOM     12  C   UNL     1     -67.971 -56.566 -37.415  0.00  0.00    +0.000 C 
BRANCH  12  13
ATOM     13  C   UNL     1     -67.639 -56.299 -38.776  0.00  0.00    +0.000 A 
ATOM     14  C   UNL     1     -67.297 -55.005 -39.167  0.00  0.00    +0.000 A 
ATOM     15  C   UNL     1     -67.657 -57.333 -39.712  0.00  0.00    +0.000 A 
ATOM     16  C   UNL     1     -66.972 -54.742 -40.495  0.00  0.00    +0.000 A 
ATOM     17  C   UNL     1     -67.333 -57.074 -41.041  0.00  0.00    +0.000 A 
ATOM     18  C   UNL     1     -66.993 -55.780 -41.422  0.00  0.00    +0.000 A 
BRANCH  18  19
ATOM     19  O   UNL     1     -66.680 -55.551 -42.730  0.00  0.00    +0.000 OA
ATOM     20  H   UNL     1     -66.789 -54.600 -42.908  0.00  0.00    +0.000 HD
ENDBRANCH  18  19
ENDBRANCH  12  13
ENDBRANCH   1  11
TORSDOF 5
ENDMDL
MODEL 6
REMARK VINA RESULT:      -5.1     12.057     15.691
REMARK  Name = Resveratrol.pdbqt.pdb
REMARK  5 active torsions:
REMARK  status: ('A' for Active; 'I' for Inactive)
REMARK    1  A    between atoms: C_1  and  C_11
REMARK    2  A    between atoms: C_4  and  O_7
REMARK    3  A    between atoms: C_5  and  O_9
REMARK    4  A    between atoms: C_12  and  C_13
REMARK    5  A    between atoms: C_18  and  O_19
REMARK                            x       y       z     vdW  Elec       q    Type
REMARK                         _______ _______ _______ _____ _____    ______ ____
ROOT
ATOM      1  C   UNL     1     -67.561 -56.126 -38.947  0.00  0.00    +0.000 A 
ATOM      2  C   UNL     1     -67.243 -54.814 -39.296  0.00  0.00    +0.000 A 
ATOM      3  C   UNL     1     -67.494 -57.141 -39.901  0.00  0.00    +0.000 A 
ATOM      4  C   UNL     1     -67.106 -56.833 -41.203  0.00  0.00    +0.000 A 
ATOM      5  C   UNL     1     -66.859 -54.527 -40.602  0.00  0.00    +0.000 A 
ATOM      6  C   UNL     1     -66.786 -55.529 -41.564  0.00  0.00    +0.000 A 
ENDROOT
BRANCH   4   7
ATOM      7  O   UNL     1     -67.031 -57.807 -42.156  0.00  0.00    +0.000 OA
ATOM      8  H   UNL     1     -67.656 -57.583 -42.868  0.00  0.00    +0.000 HD
ENDBRANCH   4   7
BRANCH   5   9
ATOM      9  O   UNL     1     -66.552 -53.235 -40.920  0.00  0.00    +0.000 OA
ATOM     10  H   UNL     1     -65.590 -53.122 -40.820  0.00  0.00    +0.000 HD
ENDBRANCH   5   9
BRANCH   1  11
ATOM     11  C   UNL     1     -67.957 -56.432 -37.612  0.00  0.00    +0.000 C 
ATOM     12  C   UNL     1     -68.290 -56.691 -36.487  0.00  0.00    +0.000 C 
BRANCH  12  13
ATOM     13  C   UNL     1     -68.686 -56.997 -35.152  0.00  0.00    +0.000 A 
ATOM     14  C   UNL     1     -69.959 -56.642 -34.706  0.00  0.00    +0.000 A 
ATOM     15  C   UNL     1     -67.799 -57.649 -34.295  0.00  0.00    +0.000 A 
ATOM     16  C   UNL     1     -70.347 -56.940 -33.403  0.00  0.00    +0.000 A 
ATOM     17  C   UNL     1     -68.184 -57.948 -32.992  0.00  0.00    +0.000 A 
ATOM     18  C   UNL     1     -69.456 -57.591 -32.555  0.00  0.00    +0.000 A 
BRANCH  18  19
ATOM     19  O   UNL     1     -69.810 -57.895 -31.273  0.00  0.00    +0.000 OA
ATOM     20  H   UNL     1     -70.540 -57.307 -31.011  0.00  0.00    +0.000 HD
ENDBRANCH  18  19
ENDBRANCH  12  13
ENDBRANCH   1  11
TORSDOF 5
ENDMDL
MODEL 7
REMARK VINA RESULT:      -4.9     12.191     16.204
REMARK  Name = Resveratrol.pdbqt.pdb
REMARK  5 active torsions:
REMARK  status: ('A' for Active; 'I' for Inactive)
REMARK    1  A    between atoms: C_1  and  C_11
REMARK    2  A    between atoms: C_4  and  O_7
REMARK    3  A    between atoms: C_5  and  O_9
REMARK    4  A    between atoms: C_12  and  C_13
REMARK    5  A    between atoms: C_18  and  O_19
REMARK                            x       y       z     vdW  Elec       q    Type
REMARK                         _______ _______ _______ _____ _____    ______ ____
ROOT
ATOM      1  C   UNL     1     -67.846 -57.933 -35.531  0.00  0.00    +0.000 A 
ATOM      2  C   UNL     1     -67.856 -57.418 -34.235  0.00  0.00    +0.000 A 
ATOM      3  C   UNL     1     -67.667 -59.300 -35.741  0.00  0.00    +0.000 A 
ATOM      4  C   UNL     1     -67.500 -60.145 -34.647  0.00  0.00    +0.000 A 
ATOM      5  C   UNL     1     -67.686 -58.279 -33.156  0.00  0.00    +0.000 A 
ATOM      6  C   UNL     1     -67.508 -59.645 -33.349  0.00  0.00    +0.000 A 
ENDROOT
BRANCH   4   7
ATOM      7  O   UNL     1     -67.323 -61.487 -34.822  0.00  0.00    +0.000 OA
ATOM      8  H   UNL     1     -68.076 -61.827 -35.337  0.00  0.00    +0.000 HD
ENDBRANCH   4   7
BRANCH   5   9
ATOM      9  O   UNL     1     -67.700 -57.752 -31.896  0.00  0.00    +0.000 OA
ATOM     10  H   UNL     1     -68.089 -56.861 -31.948  0.00  0.00    +0.000 HD
ENDBRANCH   5   9
BRANCH   1  11
ATOM     11  C   UNL     1     -68.018 -57.061 -36.646  0.00  0.00    +0.000 C 
ATOM     12  C   UNL     1     -68.163 -56.327 -37.586  0.00  0.00    +0.000 C 
BRANCH  12  13
ATOM     13  C   UNL     1     -68.336 -55.455 -38.701  0.00  0.00    +0.000 A 
ATOM     14  C   UNL     1     -69.621 -55.102 -39.115  0.00  0.00    +0.000 A 
ATOM     15  C   UNL     1     -67.221 -54.958 -39.375  0.00  0.00    +0.000 A 
ATOM     16  C   UNL     1     -69.792 -54.252 -40.202  0.00  0.00    +0.000 A 
ATOM     17  C   UNL     1     -67.389 -54.107 -40.464  0.00  0.00    +0.000 A 
ATOM     18  C   UNL     1     -68.673 -53.761 -40.870  0.00  0.00    +0.000 A 
BRANCH  18  19
ATOM     19  O   UNL     1     -68.812 -52.925 -41.939  0.00  0.00    +0.000 OA
ATOM     20  H   UNL     1     -69.727 -52.993 -42.263  0.00  0.00    +0.000 HD
ENDBRANCH  18  19
ENDBRANCH  12  13
ENDBRANCH   1  11
TORSDOF 5
ENDMDL
MODEL 8
REMARK VINA RESULT:      -4.8     49.972     54.356
REMARK  Name = Resveratrol.pdbqt.pdb
REMARK  5 active torsions:
REMARK  status: ('A' for Active; 'I' for Inactive)
REMARK    1  A    between atoms: C_1  and  C_11
REMARK    2  A    between atoms: C_4  and  O_7
REMARK    3  A    between atoms: C_5  and  O_9
REMARK    4  A    between atoms: C_12  and  C_13
REMARK    5  A    between atoms: C_18  and  O_19
REMARK                            x       y       z     vdW  Elec       q    Type
REMARK                         _______ _______ _______ _____ _____    ______ ____
ROOT
ATOM      1  C   UNL     1     -65.255 -60.954 -74.285  0.00  0.00    +0.000 A 
ATOM      2  C   UNL     1     -64.454 -60.988 -73.144  0.00  0.00    +0.000 A 
ATOM      3  C   UNL     1     -66.628 -61.176 -74.186  0.00  0.00    +0.000 A 
ATOM      4  C   UNL     1     -67.192 -61.431 -72.939  0.00  0.00    +0.000 A 
ATOM      5  C   UNL     1     -65.037 -61.245 -71.907  0.00  0.00    +0.000 A 
ATOM      6  C   UNL     1     -66.406 -61.467 -71.792  0.00  0.00    +0.000 A 
ENDROOT
BRANCH   4   7
ATOM      7  O   UNL     1     -68.533 -61.651 -72.812  0.00  0.00    +0.000 OA
ATOM      8  H   UNL     1     -68.879 -61.038 -72.138  0.00  0.00    +0.000 HD
ENDBRANCH   4   7
BRANCH   5   9
ATOM      9  O   UNL     1     -64.234 -61.273 -70.804  0.00  0.00    +0.000 OA
ATOM     10  H   UNL     1     -63.751 -62.119 -70.805  0.00  0.00    +0.000 HD
ENDBRANCH   5   9
BRANCH   1  11
ATOM     11  C   UNL     1     -64.669 -60.692 -75.559  0.00  0.00    +0.000 C 
ATOM     12  C   UNL     1     -64.176 -60.472 -76.632  0.00  0.00    +0.000 C 
BRANCH  12  13
ATOM     13  C   UNL     1     -63.591 -60.210 -77.906  0.00  0.00    +0.000 A 
ATOM     14  C   UNL     1     -62.462 -60.922 -78.312  0.00  0.00    +0.000 A 
ATOM     15  C   UNL     1     -64.148 -59.243 -78.742  0.00  0.00    +0.000 A 
ATOM     16  C   UNL     1     -61.890 -60.668 -79.555  0.00  0.00    +0.000 A 
ATOM     17  C   UNL     1     -63.578 -58.986 -79.985  0.00  0.00    +0.000 A 
ATOM     18  C   UNL     1     -62.452 -59.700 -80.382  0.00  0.00    +0.000 A 
BRANCH  18  19
ATOM     19  O   UNL     1     -61.912 -59.431 -81.605  0.00  0.00    +0.000 OA
ATOM     20  H   UNL     1     -62.434 -59.898 -82.280  0.00  0.00    +0.000 HD
ENDBRANCH  18  19
ENDBRANCH  12  13
ENDBRANCH   1  11
TORSDOF 5
ENDMDL
MODEL 9
REMARK VINA RESULT:      -4.7     49.347     53.770
REMARK  Name = Resveratrol.pdbqt.pdb
REMARK  5 active torsions:
REMARK  status: ('A' for Active; 'I' for Inactive)
REMARK    1  A    between atoms: C_1  and  C_11
REMARK    2  A    between atoms: C_4  and  O_7
REMARK    3  A    between atoms: C_5  and  O_9
REMARK    4  A    between atoms: C_12  and  C_13
REMARK    5  A    between atoms: C_18  and  O_19
REMARK                            x       y       z     vdW  Elec       q    Type
REMARK                         _______ _______ _______ _____ _____    ______ ____
ROOT
ATOM      1  C   UNL     1     -65.361 -60.653 -73.598  0.00  0.00    +0.000 A 
ATOM      2  C   UNL     1     -66.448 -59.831 -73.303  0.00  0.00    +0.000 A 
ATOM      3  C   UNL     1     -64.745 -61.392 -72.588  0.00  0.00    +0.000 A 
ATOM      4  C   UNL     1     -65.226 -61.302 -71.284  0.00  0.00    +0.000 A 
ATOM      5  C   UNL     1     -66.912 -59.756 -71.994  0.00  0.00    +0.000 A 
ATOM      6  C   UNL     1     -66.309 -60.487 -70.975  0.00  0.00    +0.000 A 
ENDROOT
BRANCH   4   7
ATOM      7  O   UNL     1     -64.643 -62.015 -70.276  0.00  0.00    +0.000 OA
ATOM      8  H   UNL     1     -65.079 -61.770 -69.440  0.00  0.00    +0.000 HD
ENDBRANCH   4   7
BRANCH   5   9
ATOM      9  O   UNL     1     -67.978 -58.944 -71.729  0.00  0.00    +0.000 OA
ATOM     10  H   UNL     1     -68.739 -59.511 -71.509  0.00  0.00    +0.000 HD
ENDBRANCH   5   9
BRANCH   1  11
ATOM     11  C   UNL     1     -64.874 -60.739 -74.936  0.00  0.00    +0.000 C 
ATOM     12  C   UNL     1     -64.465 -60.810 -76.063  0.00  0.00    +0.000 C 
BRANCH  12  13
ATOM     13  C   UNL     1     -63.979 -60.895 -77.401  0.00  0.00    +0.000 A 
ATOM     14  C   UNL     1     -64.292 -62.005 -78.185  0.00  0.00    +0.000 A 
ATOM     15  C   UNL     1     -63.190 -59.869 -77.921  0.00  0.00    +0.000 A 
ATOM     16  C   UNL     1     -63.819 -62.090 -79.492  0.00  0.00    +0.000 A 
ATOM     17  C   UNL     1     -62.714 -59.950 -79.227  0.00  0.00    +0.000 A 
ATOM     18  C   UNL     1     -63.032 -61.061 -80.002  0.00  0.00    +0.000 A 
BRANCH  18  19
ATOM     19  O   UNL     1     -62.555 -61.118 -81.279  0.00  0.00    +0.000 OA
ATOM     20  H   UNL     1     -62.129 -60.267 -81.484  0.00  0.00    +0.000 HD
ENDBRANCH  18  19
ENDBRANCH  12  13
ENDBRANCH   1  11
TORSDOF 5
ENDMDL
