REMARK  Name = RetinoicAcid.pdbqt.pdb
REMARK  6 active torsions:
REMARK  status: ('A' for Active; 'I' for Inactive)
REMARK    1  A    between atoms: C_1  and  C_3
REMARK    2  A    between atoms: C_1  and  C_5
REMARK    3  A    between atoms: C_3  and  C_15
REMARK    4  A    between atoms: C_4  and  C_9
REMARK    5  A    between atoms: C_16  and  C_17
REMARK    6  A    between atoms: C_21  and  O_22
REMARK                            x       y       z     vdW  Elec       q    Type
REMARK                         _______ _______ _______ _____ _____    ______ ____
ROOT
ATOM      1  C   UNL     1       0.050  -0.225  -1.725  0.00  0.00    +0.000 C 
ATOM      2  C   UNL     1       0.097  -0.349  -3.217  0.00  0.00    +0.000 C 
ENDROOT
BRANCH   1   4
ATOM      3  C   UNL     1      -2.249   0.056  -0.502  0.00  0.00    +0.000 C 
ATOM      4  C   UNL     1      -1.194  -0.079  -1.064  0.00  0.00    +0.000 C 
BRANCH   3   8
ATOM      5  C   UNL     1      -4.475  -1.001   0.333  0.00  0.00    +0.000 C 
ATOM      6  C   UNL     1      -5.685  -0.549   1.059  0.00  0.00    +0.000 C 
ATOM      7  C   UNL     1      -6.302   0.684   1.690  0.00  0.00    +0.000 C 
ATOM      8  C   UNL     1      -3.515   0.225   0.171  0.00  0.00    +0.000 C 
ATOM      9  C   UNL     1      -5.123   1.560   1.327  0.00  0.00    +0.000 C 
ATOM     10  C   UNL     1      -3.868   1.437   0.666  0.00  0.00    +0.000 C 
ATOM     11  C   UNL     1      -4.869  -1.524  -1.075  0.00  0.00    +0.000 C 
ATOM     12  C   UNL     1      -3.745  -2.100   1.156  0.00  0.00    +0.000 C 
ATOM     13  C   UNL     1      -3.016   2.673   0.576  0.00  0.00    +0.000 C 
ENDBRANCH   3   8
ENDBRANCH   1   4
BRANCH   1  14
ATOM     14  C   UNL     1       1.152  -0.203  -1.043  0.00  0.00    +0.000 C 
BRANCH  14  15
ATOM     15  C   UNL     1       2.455  -0.176  -0.234  0.00  0.00    +0.000 C 
ATOM     16  C   UNL     1       3.474  -0.153   0.400  0.00  0.00    +0.000 C 
BRANCH  16  17
ATOM     17  C   UNL     1       4.673  -0.125   1.152  0.00  0.00    +0.000 C 
ATOM     18  C   UNL     1       4.613  -0.126   2.649  0.00  0.00    +0.000 C 
ATOM     19  C   UNL     1       5.813  -0.066   0.550  0.00  0.00    +0.000 C 
ATOM     20  O   UNL     1       7.618  -0.997  -0.578  0.00  0.00    +0.000 OA
ATOM     21  C   UNL     1       7.062  -0.014  -0.124  0.00  0.00    +0.000 C 
BRANCH  21  22
ATOM     22  O   UNL     1       7.570   1.224  -0.239  0.00  0.00    +0.000 OA
ATOM     23  H   UNL     1       8.418   1.092  -0.712  0.00  0.00    +0.000 HD
ENDBRANCH  21  22
ENDBRANCH  16  17
ENDBRANCH  14  15
ENDBRANCH   1  14
TORSDOF 6
