MODEL 1
REMARK VINA RESULT:      -5.9      0.000      0.000
REMARK  Name = RetinoicAcid.pdbqt.pdb
REMARK  6 active torsions:
REMARK  status: ('A' for Active; 'I' for Inactive)
REMARK    1  A    between atoms: C_1  and  C_3
REMARK    2  A    between atoms: C_1  and  C_5
REMARK    3  A    between atoms: C_3  and  C_15
REMARK    4  A    between atoms: C_4  and  C_9
REMARK    5  A    between atoms: C_16  and  C_17
REMARK    6  A    between atoms: C_21  and  O_22
REMARK                            x       y       z     vdW  Elec       q    Type
REMARK                         _______ _______ _______ _____ _____    ______ ____
ROOT
ATOM      1  C   UNL     1     -72.410 -58.587 -23.655  0.00  0.00    +0.000 C 
ATOM      2  C   UNL     1     -71.879 -59.875 -23.107  0.00  0.00    +0.000 C 
ENDROOT
BRANCH   1   4
ATOM      3  C   UNL     1     -73.840 -57.011 -22.128  0.00  0.00    +0.000 C 
ATOM      4  C   UNL     1     -73.185 -57.731 -22.834  0.00  0.00    +0.000 C 
BRANCH   3   8
ATOM      5  C   UNL     1     -76.179 -56.110 -21.432  0.00  0.00    +0.000 C 
ATOM      6  C   UNL     1     -76.722 -55.157 -20.436  0.00  0.00    +0.000 C 
ATOM      7  C   UNL     1     -76.286 -54.215 -19.330  0.00  0.00    +0.000 C 
ATOM      8  C   UNL     1     -74.622 -56.148 -21.275  0.00  0.00    +0.000 C 
ATOM      9  C   UNL     1     -74.822 -54.548 -19.513  0.00  0.00    +0.000 C 
ATOM     10  C   UNL     1     -74.013 -55.381 -20.337  0.00  0.00    +0.000 C 
ATOM     11  C   UNL     1     -76.531 -55.632 -22.867  0.00  0.00    +0.000 C 
ATOM     12  C   UNL     1     -76.743 -57.534 -21.161  0.00  0.00    +0.000 C 
ATOM     13  C   UNL     1     -72.529 -55.353 -20.095  0.00  0.00    +0.000 C 
ENDBRANCH   3   8
ENDBRANCH   1   4
BRANCH   1  14
ATOM     14  C   UNL     1     -72.200 -58.277 -24.896  0.00  0.00    +0.000 C 
BRANCH  14  15
ATOM     15  C   UNL     1     -71.951 -57.913 -26.366  0.00  0.00    +0.000 C 
ATOM     16  C   UNL     1     -71.756 -57.631 -27.516  0.00  0.00    +0.000 C 
BRANCH  16  17
ATOM     17  C   UNL     1     -71.529 -57.301 -28.873  0.00  0.00    +0.000 C 
ATOM     18  C   UNL     1     -71.789 -58.320 -29.941  0.00  0.00    +0.000 C 
ATOM     19  C   UNL     1     -71.068 -56.137 -29.188  0.00  0.00    +0.000 C 
ATOM     20  O   UNL     1     -71.282 -53.865 -29.622  0.00  0.00    +0.000 OA
ATOM     21  C   UNL     1     -70.573 -54.849 -29.524  0.00  0.00    +0.000 C 
BRANCH  21  22
ATOM     22  O   UNL     1     -69.242 -54.804 -29.701  0.00  0.00    +0.000 OA
ATOM     23  H   UNL     1     -68.922 -55.653 -29.331  0.00  0.00    +0.000 HD
ENDBRANCH  21  22
ENDBRANCH  16  17
ENDBRANCH  14  15
ENDBRANCH   1  14
TORSDOF 6
ENDMDL
MODEL 2
REMARK VINA RESULT:      -5.7     36.831     41.600
REMARK  Name = RetinoicAcid.pdbqt.pdb
REMARK  6 active torsions:
REMARK  status: ('A' for Active; 'I' for Inactive)
REMARK    1  A    between atoms: C_1  and  C_3
REMARK    2  A    between atoms: C_1  and  C_5
REMARK    3  A    between atoms: C_3  and  C_15
REMARK    4  A    between atoms: C_4  and  C_9
REMARK    5  A    between atoms: C_16  and  C_17
REMARK    6  A    between atoms: C_21  and  O_22
REMARK                            x       y       z     vdW  Elec       q    Type
REMARK                         _______ _______ _______ _____ _____    ______ ____
ROOT
ATOM      1  C   UNL     1     -59.733 -59.662 -63.507  0.00  0.00    +0.000 C 
ATOM      2  C   UNL     1     -60.793 -60.616 -63.966  0.00  0.00    +0.000 C 
ENDROOT
BRANCH   1   4
ATOM      3  C   UNL     1     -60.059 -58.288 -61.301  0.00  0.00    +0.000 C 
ATOM      4  C   UNL     1     -59.912 -58.924 -62.311  0.00  0.00    +0.000 C 
BRANCH   3   8
ATOM      5  C   UNL     1     -59.656 -56.067 -60.007  0.00  0.00    +0.000 C 
ATOM      6  C   UNL     1     -59.983 -55.515 -58.672  0.00  0.00    +0.000 C 
ATOM      7  C   UNL     1     -60.679 -55.876 -57.374  0.00  0.00    +0.000 C 
ATOM      8  C   UNL     1     -60.234 -57.519 -60.092  0.00  0.00    +0.000 C 
ATOM      9  C   UNL     1     -61.057 -57.256 -57.865  0.00  0.00    +0.000 C 
ATOM     10  C   UNL     1     -60.902 -58.049 -59.037  0.00  0.00    +0.000 C 
ATOM     11  C   UNL     1     -58.115 -56.126 -60.191  0.00  0.00    +0.000 C 
ATOM     12  C   UNL     1     -60.320 -55.201 -61.114  0.00  0.00    +0.000 C 
ATOM     13  C   UNL     1     -61.508 -59.426 -59.019  0.00  0.00    +0.000 C 
ENDBRANCH   3   8
ENDBRANCH   1   4
BRANCH   1  14
ATOM     14  C   UNL     1     -58.673 -59.477 -64.229  0.00  0.00    +0.000 C 
BRANCH  14  15
ATOM     15  C   UNL     1     -57.419 -59.260 -65.086  0.00  0.00    +0.000 C 
ATOM     16  C   UNL     1     -56.438 -59.092 -65.757  0.00  0.00    +0.000 C 
BRANCH  16  17
ATOM     17  C   UNL     1     -55.284 -58.895 -66.552  0.00  0.00    +0.000 C 
ATOM     18  C   UNL     1     -53.980 -59.503 -66.135  0.00  0.00    +0.000 C 
ATOM     19  C   UNL     1     -55.347 -58.168 -67.616  0.00  0.00    +0.000 C 
ATOM     20  O   UNL     1     -55.836 -57.803 -69.858  0.00  0.00    +0.000 OA
ATOM     21  C   UNL     1     -55.433 -57.376 -68.792  0.00  0.00    +0.000 C 
BRANCH  21  22
ATOM     22  O   UNL     1     -55.049 -56.100 -68.621  0.00  0.00    +0.000 OA
ATOM     23  H   UNL     1     -54.474 -56.127 -67.827  0.00  0.00    +0.000 HD
ENDBRANCH  21  22
ENDBRANCH  16  17
ENDBRANCH  14  15
ENDBRANCH   1  14
TORSDOF 6
ENDMDL
MODEL 3
REMARK VINA RESULT:      -5.7      2.195      3.232
REMARK  Name = RetinoicAcid.pdbqt.pdb
REMARK  6 active torsions:
REMARK  status: ('A' for Active; 'I' for Inactive)
REMARK    1  A    between atoms: C_1  and  C_3
REMARK    2  A    between atoms: C_1  and  C_5
REMARK    3  A    between atoms: C_3  and  C_15
REMARK    4  A    between atoms: C_4  and  C_9
REMARK    5  A    between atoms: C_16  and  C_17
REMARK    6  A    between atoms: C_21  and  O_22
REMARK                            x       y       z     vdW  Elec       q    Type
REMARK                         _______ _______ _______ _____ _____    ______ ____
ROOT
ATOM      1  C   UNL     1     -72.441 -57.946 -25.914  0.00  0.00    +0.000 C 
ATOM      2  C   UNL     1     -72.369 -59.426 -25.695  0.00  0.00    +0.000 C 
ENDROOT
BRANCH   1   4
ATOM      3  C   UNL     1     -73.732 -56.422 -24.220  0.00  0.00    +0.000 C 
ATOM      4  C   UNL     1     -73.142 -57.126 -24.996  0.00  0.00    +0.000 C 
BRANCH   3   8
ATOM      5  C   UNL     1     -74.661 -56.048 -21.818  0.00  0.00    +0.000 C 
ATOM      6  C   UNL     1     -75.398 -54.987 -21.094  0.00  0.00    +0.000 C 
ATOM      7  C   UNL     1     -76.004 -53.611 -21.293  0.00  0.00    +0.000 C 
ATOM      8  C   UNL     1     -74.438 -55.570 -23.292  0.00  0.00    +0.000 C 
ATOM      9  C   UNL     1     -75.587 -53.548 -22.746  0.00  0.00    +0.000 C 
ATOM     10  C   UNL     1     -74.900 -54.360 -23.693  0.00  0.00    +0.000 C 
ATOM     11  C   UNL     1     -75.497 -57.356 -21.832  0.00  0.00    +0.000 C 
ATOM     12  C   UNL     1     -73.273 -56.275 -21.154  0.00  0.00    +0.000 C 
ATOM     13  C   UNL     1     -74.729 -53.801 -25.079  0.00  0.00    +0.000 C 
ENDBRANCH   3   8
ENDBRANCH   1   4
BRANCH   1  14
ATOM     14  C   UNL     1     -71.901 -57.421 -26.969  0.00  0.00    +0.000 C 
BRANCH  14  15
ATOM     15  C   UNL     1     -71.261 -56.799 -28.216  0.00  0.00    +0.000 C 
ATOM     16  C   UNL     1     -70.761 -56.313 -29.193  0.00  0.00    +0.000 C 
BRANCH  16  17
ATOM     17  C   UNL     1     -70.176 -55.740 -30.348  0.00  0.00    +0.000 C 
ATOM     18  C   UNL     1     -70.178 -54.252 -30.523  0.00  0.00    +0.000 C 
ATOM     19  C   UNL     1     -69.672 -56.499 -31.262  0.00  0.00    +0.000 C 
ATOM     20  O   UNL     1     -67.988 -57.811 -32.178  0.00  0.00    +0.000 OA
ATOM     21  C   UNL     1     -69.109 -57.343 -32.255  0.00  0.00    +0.000 C 
BRANCH  21  22
ATOM     22  O   UNL     1     -69.932 -57.602 -33.284  0.00  0.00    +0.000 OA
ATOM     23  H   UNL     1     -70.646 -58.144 -32.888  0.00  0.00    +0.000 HD
ENDBRANCH  21  22
ENDBRANCH  16  17
ENDBRANCH  14  15
ENDBRANCH   1  14
TORSDOF 6
ENDMDL
MODEL 4
REMARK VINA RESULT:      -5.5      4.274     11.047
REMARK  Name = RetinoicAcid.pdbqt.pdb
REMARK  6 active torsions:
REMARK  status: ('A' for Active; 'I' for Inactive)
REMARK    1  A    between atoms: C_1  and  C_3
REMARK    2  A    between atoms: C_1  and  C_5
REMARK    3  A    between atoms: C_3  and  C_15
REMARK    4  A    between atoms: C_4  and  C_9
REMARK    5  A    between atoms: C_16  and  C_17
REMARK    6  A    between atoms: C_21  and  O_22
REMARK                            x       y       z     vdW  Elec       q    Type
REMARK                         _______ _______ _______ _____ _____    ______ ____
ROOT
ATOM      1  C   UNL     1     -70.829 -55.556 -29.634  0.00  0.00    +0.000 C 
ATOM      2  C   UNL     1     -70.895 -54.076 -29.410  0.00  0.00    +0.000 C 
ENDROOT
BRANCH   1   4
ATOM      3  C   UNL     1     -70.196 -56.500 -31.994  0.00  0.00    +0.000 C 
ATOM      4  C   UNL     1     -70.492 -56.065 -30.912  0.00  0.00    +0.000 C 
BRANCH   3   8
ATOM      5  C   UNL     1     -68.904 -58.280 -33.383  0.00  0.00    +0.000 C 
ATOM      6  C   UNL     1     -68.706 -58.604 -34.816  0.00  0.00    +0.000 C 
ATOM      7  C   UNL     1     -69.094 -58.137 -36.205  0.00  0.00    +0.000 C 
ATOM      8  C   UNL     1     -69.836 -57.026 -33.289  0.00  0.00    +0.000 C 
ATOM      9  C   UNL     1     -69.930 -56.993 -35.676  0.00  0.00    +0.000 C 
ATOM     10  C   UNL     1     -70.306 -56.440 -34.418  0.00  0.00    +0.000 C 
ATOM     11  C   UNL     1     -67.538 -57.947 -32.724  0.00  0.00    +0.000 C 
ATOM     12  C   UNL     1     -69.598 -59.472 -32.664  0.00  0.00    +0.000 C 
ATOM     13  C   UNL     1     -71.215 -55.243 -34.439  0.00  0.00    +0.000 C 
ENDBRANCH   3   8
ENDBRANCH   1   4
BRANCH   1  14
ATOM     14  C   UNL     1     -71.127 -56.370 -28.671  0.00  0.00    +0.000 C 
BRANCH  14  15
ATOM     15  C   UNL     1     -71.477 -57.334 -27.530  0.00  0.00    +0.000 C 
ATOM     16  C   UNL     1     -71.750 -58.086 -26.636  0.00  0.00    +0.000 C 
BRANCH  16  17
ATOM     17  C   UNL     1     -72.075 -58.970 -25.579  0.00  0.00    +0.000 C 
ATOM     18  C   UNL     1     -71.723 -60.422 -25.688  0.00  0.00    +0.000 C 
ATOM     19  C   UNL     1     -72.701 -58.532 -24.539  0.00  0.00    +0.000 C 
ATOM     20  O   UNL     1     -72.813 -57.478 -22.471  0.00  0.00    +0.000 OA
ATOM     21  C   UNL     1     -73.379 -58.036 -23.393  0.00  0.00    +0.000 C 
BRANCH  21  22
ATOM     22  O   UNL     1     -74.709 -58.215 -23.425  0.00  0.00    +0.000 OA
ATOM     23  H   UNL     1     -74.820 -59.189 -23.402  0.00  0.00    +0.000 HD
ENDBRANCH  21  22
ENDBRANCH  16  17
ENDBRANCH  14  15
ENDBRANCH   1  14
TORSDOF 6
ENDMDL
MODEL 5
REMARK VINA RESULT:      -5.5     36.259     41.013
REMARK  Name = RetinoicAcid.pdbqt.pdb
REMARK  6 active torsions:
REMARK  status: ('A' for Active; 'I' for Inactive)
REMARK    1  A    between atoms: C_1  and  C_3
REMARK    2  A    between atoms: C_1  and  C_5
REMARK    3  A    between atoms: C_3  and  C_15
REMARK    4  A    between atoms: C_4  and  C_9
REMARK    5  A    between atoms: C_16  and  C_17
REMARK    6  A    between atoms: C_21  and  O_22
REMARK                            x       y       z     vdW  Elec       q    Type
REMARK                         _______ _______ _______ _____ _____    ______ ____
ROOT
ATOM      1  C   UNL     1     -55.549 -57.931 -61.313  0.00  0.00    +0.000 C 
ATOM      2  C   UNL     1     -54.141 -58.026 -60.812  0.00  0.00    +0.000 C 
ENDROOT
BRANCH   1   4
ATOM      3  C   UNL     1     -57.459 -57.158 -59.696  0.00  0.00    +0.000 C 
ATOM      4  C   UNL     1     -56.586 -57.516 -60.442  0.00  0.00    +0.000 C 
BRANCH   3   8
ATOM      5  C   UNL     1     -59.834 -56.141 -59.385  0.00  0.00    +0.000 C 
ATOM      6  C   UNL     1     -60.721 -55.784 -58.253  0.00  0.00    +0.000 C 
ATOM      7  C   UNL     1     -60.776 -55.790 -56.738  0.00  0.00    +0.000 C 
ATOM      8  C   UNL     1     -58.503 -56.722 -58.799  0.00  0.00    +0.000 C 
ATOM      9  C   UNL     1     -59.391 -56.386 -56.608  0.00  0.00    +0.000 C 
ATOM     10  C   UNL     1     -58.336 -56.822 -57.458  0.00  0.00    +0.000 C 
ATOM     11  C   UNL     1     -59.507 -54.872 -60.219  0.00  0.00    +0.000 C 
ATOM     12  C   UNL     1     -60.510 -57.231 -60.263  0.00  0.00    +0.000 C 
ATOM     13  C   UNL     1     -57.105 -57.377 -56.794  0.00  0.00    +0.000 C 
ENDBRANCH   3   8
ENDBRANCH   1   4
BRANCH   1  14
ATOM     14  C   UNL     1     -55.826 -58.274 -62.532  0.00  0.00    +0.000 C 
BRANCH  14  15
ATOM     15  C   UNL     1     -56.152 -58.681 -63.975  0.00  0.00    +0.000 C 
ATOM     16  C   UNL     1     -56.409 -58.999 -65.103  0.00  0.00    +0.000 C 
BRANCH  16  17
ATOM     17  C   UNL     1     -56.713 -59.369 -66.435  0.00  0.00    +0.000 C 
ATOM     18  C   UNL     1     -57.535 -60.594 -66.698  0.00  0.00    +0.000 C 
ATOM     19  C   UNL     1     -56.258 -58.671 -67.421  0.00  0.00    +0.000 C 
ATOM     20  O   UNL     1     -56.297 -56.865 -68.882  0.00  0.00    +0.000 OA
ATOM     21  C   UNL     1     -55.761 -57.888 -68.497  0.00  0.00    +0.000 C 
BRANCH  21  22
ATOM     22  O   UNL     1     -54.629 -58.363 -69.042  0.00  0.00    +0.000 OA
ATOM     23  H   UNL     1     -54.659 -59.325 -68.855  0.00  0.00    +0.000 HD
ENDBRANCH  21  22
ENDBRANCH  16  17
ENDBRANCH  14  15
ENDBRANCH   1  14
TORSDOF 6
ENDMDL
MODEL 6
REMARK VINA RESULT:      -5.4      4.933     11.070
REMARK  Name = RetinoicAcid.pdbqt.pdb
REMARK  6 active torsions:
REMARK  status: ('A' for Active; 'I' for Inactive)
REMARK    1  A    between atoms: C_1  and  C_3
REMARK    2  A    between atoms: C_1  and  C_5
REMARK    3  A    between atoms: C_3  and  C_15
REMARK    4  A    between atoms: C_4  and  C_9
REMARK    5  A    between atoms: C_16  and  C_17
REMARK    6  A    between atoms: C_21  and  O_22
REMARK                            x       y       z     vdW  Elec       q    Type
REMARK                         _______ _______ _______ _____ _____    ______ ____
ROOT
ATOM      1  C   UNL     1     -70.874 -55.685 -29.536  0.00  0.00    +0.000 C 
ATOM      2  C   UNL     1     -70.975 -54.209 -29.299  0.00  0.00    +0.000 C 
ENDROOT
BRANCH   1   4
ATOM      3  C   UNL     1     -70.203 -56.595 -31.898  0.00  0.00    +0.000 C 
ATOM      4  C   UNL     1     -70.517 -56.176 -30.815  0.00  0.00    +0.000 C 
BRANCH   3   8
ATOM      5  C   UNL     1     -68.905 -58.367 -33.292  0.00  0.00    +0.000 C 
ATOM      6  C   UNL     1     -68.679 -58.667 -34.726  0.00  0.00    +0.000 C 
ATOM      7  C   UNL     1     -69.030 -58.169 -36.114  0.00  0.00    +0.000 C 
ATOM      8  C   UNL     1     -69.821 -57.102 -33.195  0.00  0.00    +0.000 C 
ATOM      9  C   UNL     1     -69.863 -57.023 -35.582  0.00  0.00    +0.000 C 
ATOM     10  C   UNL     1     -70.258 -56.489 -34.323  0.00  0.00    +0.000 C 
ATOM     11  C   UNL     1     -67.550 -58.065 -32.597  0.00  0.00    +0.000 C 
ATOM     12  C   UNL     1     -69.631 -59.562 -32.611  0.00  0.00    +0.000 C 
ATOM     13  C   UNL     1     -71.150 -55.278 -34.341  0.00  0.00    +0.000 C 
ENDBRANCH   3   8
ENDBRANCH   1   4
BRANCH   1  14
ATOM     14  C   UNL     1     -71.161 -56.514 -28.582  0.00  0.00    +0.000 C 
BRANCH  14  15
ATOM     15  C   UNL     1     -71.498 -57.494 -27.451  0.00  0.00    +0.000 C 
ATOM     16  C   UNL     1     -71.762 -58.260 -26.565  0.00  0.00    +0.000 C 
BRANCH  16  17
ATOM     17  C   UNL     1     -72.077 -59.160 -25.519  0.00  0.00    +0.000 C 
ATOM     18  C   UNL     1     -71.820 -58.767 -24.096  0.00  0.00    +0.000 C 
ATOM     19  C   UNL     1     -72.553 -60.328 -25.792  0.00  0.00    +0.000 C 
ATOM     20  O   UNL     1     -74.268 -61.797 -26.339  0.00  0.00    +0.000 OA
ATOM     21  C   UNL     1     -73.089 -61.606 -26.104  0.00  0.00    +0.000 C 
BRANCH  21  22
ATOM     22  O   UNL     1     -72.174 -62.588 -26.141  0.00  0.00    +0.000 OA
ATOM     23  H   UNL     1     -71.852 -62.650 -25.217  0.00  0.00    +0.000 HD
ENDBRANCH  21  22
ENDBRANCH  16  17
ENDBRANCH  14  15
ENDBRANCH   1  14
TORSDOF 6
ENDMDL
MODEL 7
REMARK VINA RESULT:      -5.4     38.641     44.883
REMARK  Name = RetinoicAcid.pdbqt.pdb
REMARK  6 active torsions:
REMARK  status: ('A' for Active; 'I' for Inactive)
REMARK    1  A    between atoms: C_1  and  C_3
REMARK    2  A    between atoms: C_1  and  C_5
REMARK    3  A    between atoms: C_3  and  C_15
REMARK    4  A    between atoms: C_4  and  C_9
REMARK    5  A    between atoms: C_16  and  C_17
REMARK    6  A    between atoms: C_21  and  O_22
REMARK                            x       y       z     vdW  Elec       q    Type
REMARK                         _______ _______ _______ _____ _____    ______ ____
ROOT
ATOM      1  C   UNL     1     -57.901 -60.178 -66.162  0.00  0.00    +0.000 C 
ATOM      2  C   UNL     1     -58.480 -61.303 -66.964  0.00  0.00    +0.000 C 
ENDROOT
BRANCH   1   4
ATOM      3  C   UNL     1     -55.866 -58.810 -67.082  0.00  0.00    +0.000 C 
ATOM      4  C   UNL     1     -56.799 -59.443 -66.663  0.00  0.00    +0.000 C 
BRANCH   3   8
ATOM      5  C   UNL     1     -54.876 -57.276 -68.935  0.00  0.00    +0.000 C 
ATOM      6  C   UNL     1     -53.594 -56.580 -69.197  0.00  0.00    +0.000 C 
ATOM      7  C   UNL     1     -52.215 -56.365 -68.604  0.00  0.00    +0.000 C 
ATOM      8  C   UNL     1     -54.746 -58.047 -67.579  0.00  0.00    +0.000 C 
ATOM      9  C   UNL     1     -52.511 -57.224 -67.395  0.00  0.00    +0.000 C 
ATOM     10  C   UNL     1     -53.590 -57.992 -66.872  0.00  0.00    +0.000 C 
ATOM     11  C   UNL     1     -55.164 -58.295 -70.071  0.00  0.00    +0.000 C 
ATOM     12  C   UNL     1     -56.025 -56.236 -68.809  0.00  0.00    +0.000 C 
ATOM     13  C   UNL     1     -53.366 -58.683 -65.555  0.00  0.00    +0.000 C 
ENDBRANCH   3   8
ENDBRANCH   1   4
BRANCH   1  14
ATOM     14  C   UNL     1     -58.379 -59.909 -64.987  0.00  0.00    +0.000 C 
BRANCH  14  15
ATOM     15  C   UNL     1     -58.946 -59.588 -63.598  0.00  0.00    +0.000 C 
ATOM     16  C   UNL     1     -59.391 -59.338 -62.512  0.00  0.00    +0.000 C 
BRANCH  16  17
ATOM     17  C   UNL     1     -59.920 -59.045 -61.233  0.00  0.00    +0.000 C 
ATOM     18  C   UNL     1     -60.762 -60.062 -60.525  0.00  0.00    +0.000 C 
ATOM     19  C   UNL     1     -59.705 -57.893 -60.691  0.00  0.00    +0.000 C 
ATOM     20  O   UNL     1     -58.423 -56.362 -59.504  0.00  0.00    +0.000 OA
ATOM     21  C   UNL     1     -59.451 -56.627 -60.100  0.00  0.00    +0.000 C 
BRANCH  21  22
ATOM     22  O   UNL     1     -60.437 -55.733 -60.277  0.00  0.00    +0.000 OA
ATOM     23  H   UNL     1     -61.195 -56.271 -60.587  0.00  0.00    +0.000 HD
ENDBRANCH  21  22
ENDBRANCH  16  17
ENDBRANCH  14  15
ENDBRANCH   1  14
TORSDOF 6
ENDMDL
MODEL 8
REMARK VINA RESULT:      -5.4     37.361     41.444
REMARK  Name = RetinoicAcid.pdbqt.pdb
REMARK  6 active torsions:
REMARK  status: ('A' for Active; 'I' for Inactive)
REMARK    1  A    between atoms: C_1  and  C_3
REMARK    2  A    between atoms: C_1  and  C_5
REMARK    3  A    between atoms: C_3  and  C_15
REMARK    4  A    between atoms: C_4  and  C_9
REMARK    5  A    between atoms: C_16  and  C_17
REMARK    6  A    between atoms: C_21  and  O_22
REMARK                            x       y       z     vdW  Elec       q    Type
REMARK                         _______ _______ _______ _____ _____    ______ ____
ROOT
ATOM      1  C   UNL     1     -55.841 -57.591 -61.425  0.00  0.00    +0.000 C 
ATOM      2  C   UNL     1     -54.627 -57.507 -60.550  0.00  0.00    +0.000 C 
ENDROOT
BRANCH   1   4
ATOM      3  C   UNL     1     -58.217 -57.157 -60.413  0.00  0.00    +0.000 C 
ATOM      4  C   UNL     1     -57.127 -57.362 -60.878  0.00  0.00    +0.000 C 
BRANCH   3   8
ATOM      5  C   UNL     1     -60.315 -58.070 -59.174  0.00  0.00    +0.000 C 
ATOM      6  C   UNL     1     -61.609 -57.534 -58.691  0.00  0.00    +0.000 C 
ATOM      7  C   UNL     1     -62.418 -56.253 -58.635  0.00  0.00    +0.000 C 
ATOM      8  C   UNL     1     -59.525 -56.904 -59.856  0.00  0.00    +0.000 C 
ATOM      9  C   UNL     1     -61.354 -55.452 -59.353  0.00  0.00    +0.000 C 
ATOM     10  C   UNL     1     -60.064 -55.661 -59.918  0.00  0.00    +0.000 C 
ATOM     11  C   UNL     1     -60.566 -59.190 -60.220  0.00  0.00    +0.000 C 
ATOM     12  C   UNL     1     -59.481 -58.601 -57.973  0.00  0.00    +0.000 C 
ATOM     13  C   UNL     1     -59.386 -54.470 -60.538  0.00  0.00    +0.000 C 
ENDBRANCH   3   8
ENDBRANCH   1   4
BRANCH   1  14
ATOM     14  C   UNL     1     -55.717 -57.920 -62.672  0.00  0.00    +0.000 C 
BRANCH  14  15
ATOM     15  C   UNL     1     -55.573 -58.310 -64.149  0.00  0.00    +0.000 C 
ATOM     16  C   UNL     1     -55.462 -58.616 -65.304  0.00  0.00    +0.000 C 
BRANCH  16  17
ATOM     17  C   UNL     1     -55.336 -58.973 -66.668  0.00  0.00    +0.000 C 
ATOM     18  C   UNL     1     -55.088 -60.403 -67.043  0.00  0.00    +0.000 C 
ATOM     19  C   UNL     1     -55.402 -58.066 -67.584  0.00  0.00    +0.000 C 
ATOM     20  O   UNL     1     -56.546 -56.634 -69.011  0.00  0.00    +0.000 OA
ATOM     21  C   UNL     1     -55.489 -57.061 -68.583  0.00  0.00    +0.000 C 
BRANCH  21  22
ATOM     22  O   UNL     1     -54.299 -56.602 -69.002  0.00  0.00    +0.000 OA
ATOM     23  H   UNL     1     -54.056 -55.924 -68.337  0.00  0.00    +0.000 HD
ENDBRANCH  21  22
ENDBRANCH  16  17
ENDBRANCH  14  15
ENDBRANCH   1  14
TORSDOF 6
ENDMDL
MODEL 9
REMARK VINA RESULT:      -5.3     48.330     52.016
REMARK  Name = RetinoicAcid.pdbqt.pdb
REMARK  6 active torsions:
REMARK  status: ('A' for Active; 'I' for Inactive)
REMARK    1  A    between atoms: C_1  and  C_3
REMARK    2  A    between atoms: C_1  and  C_5
REMARK    3  A    between atoms: C_3  and  C_15
REMARK    4  A    between atoms: C_4  and  C_9
REMARK    5  A    between atoms: C_16  and  C_17
REMARK    6  A    between atoms: C_21  and  O_22
REMARK                            x       y       z     vdW  Elec       q    Type
REMARK                         _______ _______ _______ _____ _____    ______ ____
ROOT
ATOM      1  C   UNL     1     -65.864 -60.854 -73.329  0.00  0.00    +0.000 C 
ATOM      2  C   UNL     1     -66.966 -60.200 -72.554  0.00  0.00    +0.000 C 
ENDROOT
BRANCH   1   4
ATOM      3  C   UNL     1     -65.537 -60.293 -75.866  0.00  0.00    +0.000 C 
ATOM      4  C   UNL     1     -65.682 -60.549 -74.700  0.00  0.00    +0.000 C 
BRANCH   3   8
ATOM      5  C   UNL     1     -64.199 -60.643 -78.069  0.00  0.00    +0.000 C 
ATOM      6  C   UNL     1     -64.269 -60.163 -79.469  0.00  0.00    +0.000 C 
ATOM      7  C   UNL     1     -65.081 -59.260 -80.377  0.00  0.00    +0.000 C 
ATOM      8  C   UNL     1     -65.371 -59.986 -77.267  0.00  0.00    +0.000 C 
ATOM      9  C   UNL     1     -66.034 -58.866 -79.270  0.00  0.00    +0.000 C 
ATOM     10  C   UNL     1     -66.230 -59.138 -77.886  0.00  0.00    +0.000 C 
ATOM     11  C   UNL     1     -62.849 -60.216 -77.432  0.00  0.00    +0.000 C 
ATOM     12  C   UNL     1     -64.374 -62.188 -78.032  0.00  0.00    +0.000 C 
ATOM     13  C   UNL     1     -67.394 -58.465 -77.212  0.00  0.00    +0.000 C 
ENDBRANCH   3   8
ENDBRANCH   1   4
BRANCH   1  14
ATOM     14  C   UNL     1     -65.107 -61.737 -72.756  0.00  0.00    +0.000 C 
BRANCH  14  15
ATOM     15  C   UNL     1     -64.213 -62.783 -72.078  0.00  0.00    +0.000 C 
ATOM     16  C   UNL     1     -63.512 -63.601 -71.548  0.00  0.00    +0.000 C 
BRANCH  16  17
ATOM     17  C   UNL     1     -62.683 -64.561 -70.920  0.00  0.00    +0.000 C 
ATOM     18  C   UNL     1     -63.267 -65.863 -70.463  0.00  0.00    +0.000 C 
ATOM     19  C   UNL     1     -61.436 -64.302 -70.712  0.00  0.00    +0.000 C 
ATOM     20  O   UNL     1     -59.210 -64.147 -71.359  0.00  0.00    +0.000 OA
ATOM     21  C   UNL     1     -60.062 -64.011 -70.500  0.00  0.00    +0.000 C 
BRANCH  21  22
ATOM     22  O   UNL     1     -59.785 -63.548 -69.271  0.00  0.00    +0.000 OA
ATOM     23  H   UNL     1     -60.638 -63.613 -68.792  0.00  0.00    +0.000 HD
ENDBRANCH  21  22
ENDBRANCH  16  17
ENDBRANCH  14  15
ENDBRANCH   1  14
TORSDOF 6
ENDMDL
