MODEL 1
REMARK VINA RESULT:      -6.0      0.000      0.000
REMARK  Name = SB_202190.pdbqt.pdb
REMARK  4 active torsions:
REMARK  status: ('A' for Active; 'I' for Inactive)
REMARK    1  A    between atoms: C_4  and  C_7
REMARK    2  A    between atoms: C_5  and  C_19
REMARK    3  A    between atoms: C_6  and  C_8
REMARK    4  A    between atoms: C_15  and  O_26
REMARK                            x       y       z     vdW  Elec       q    Type
REMARK                         _______ _______ _______ _____ _____    ______ ____
ROOT
ATOM      1  N   UNL     1     -63.281 -46.529 -56.852  0.00  0.00    +0.000 N 
ATOM      2  N   UNL     1     -65.463 -46.404 -56.612  0.00  0.00    +0.000 NA
ATOM      3  C   UNL     1     -63.763 -46.275 -58.120  0.00  0.00    +0.000 A 
ATOM      4  C   UNL     1     -65.138 -46.233 -57.940  0.00  0.00    +0.000 A 
ATOM      5  C   UNL     1     -64.330 -46.584 -55.966  0.00  0.00    +0.000 A 
ATOM      6  H   UNL     1     -62.307 -46.620 -56.599  0.00  0.00    +0.000 HD
ENDROOT
BRANCH   4   7
ATOM      7  C   UNL     1     -66.165 -46.056 -58.945  0.00  0.00    +0.000 A 
ATOM      8  C   UNL     1     -67.097 -47.060 -59.217  0.00  0.00    +0.000 A 
ATOM      9  C   UNL     1     -68.106 -46.855 -60.155  0.00  0.00    +0.000 A 
ATOM     10  C   UNL     1     -68.187 -45.630 -60.808  0.00  0.00    +0.000 A 
ATOM     11  F   UNL     1     -69.154 -45.431 -61.714  0.00  0.00    +0.000 F 
ATOM     12  C   UNL     1     -67.282 -44.611 -60.539  0.00  0.00    +0.000 A 
ATOM     13  C   UNL     1     -66.275 -44.826 -59.600  0.00  0.00    +0.000 A 
ENDBRANCH   4   7
BRANCH   3  15
ATOM     14  N   UNL     1     -61.213 -45.677 -61.488  0.00  0.00    +0.000 NA
ATOM     15  C   UNL     1     -62.876 -46.081 -59.264  0.00  0.00    +0.000 A 
ATOM     16  C   UNL     1     -62.784 -47.044 -60.266  0.00  0.00    +0.000 A 
ATOM     17  C   UNL     1     -62.135 -44.906 -59.393  0.00  0.00    +0.000 A 
ATOM     18  C   UNL     1     -61.947 -46.800 -61.342  0.00  0.00    +0.000 A 
ATOM     19  C   UNL     1     -61.324 -44.758 -60.506  0.00  0.00    +0.000 A 
ENDBRANCH   3  15
BRANCH   5  20
ATOM     20  C   UNL     1     -64.180 -46.811 -54.533  0.00  0.00    +0.000 A 
ATOM     21  C   UNL     1     -63.853 -45.743 -53.692  0.00  0.00    +0.000 A 
ATOM     22  C   UNL     1     -64.359 -48.080 -53.975  0.00  0.00    +0.000 A 
ATOM     23  C   UNL     1     -63.705 -45.934 -52.321  0.00  0.00    +0.000 A 
ATOM     24  C   UNL     1     -64.212 -48.282 -52.604  0.00  0.00    +0.000 A 
ATOM     25  C   UNL     1     -63.887 -47.206 -51.788  0.00  0.00    +0.000 A 
BRANCH  25  26
ATOM     26  O   UNL     1     -63.749 -47.426 -50.448  0.00  0.00    +0.000 OA
ATOM     27  H   UNL     1     -63.627 -46.566 -50.010  0.00  0.00    +0.000 HD
ENDBRANCH  25  26
ENDBRANCH   5  20
TORSDOF 4
ENDMDL
MODEL 2
REMARK VINA RESULT:      -5.9     21.925     24.511
REMARK  Name = SB_202190.pdbqt.pdb
REMARK  4 active torsions:
REMARK  status: ('A' for Active; 'I' for Inactive)
REMARK    1  A    between atoms: C_4  and  C_7
REMARK    2  A    between atoms: C_5  and  C_19
REMARK    3  A    between atoms: C_6  and  C_8
REMARK    4  A    between atoms: C_15  and  O_26
REMARK                            x       y       z     vdW  Elec       q    Type
REMARK                         _______ _______ _______ _____ _____    ______ ____
ROOT
ATOM      1  N   UNL     1     -65.719 -62.048 -75.673  0.00  0.00    +0.000 N 
ATOM      2  N   UNL     1     -64.288 -60.378 -75.672  0.00  0.00    +0.000 NA
ATOM      3  C   UNL     1     -65.243 -61.989 -76.968  0.00  0.00    +0.000 A 
ATOM      4  C   UNL     1     -64.369 -60.910 -76.940  0.00  0.00    +0.000 A 
ATOM      5  C   UNL     1     -65.112 -61.074 -74.917  0.00  0.00    +0.000 A 
ATOM      6  H   UNL     1     -66.381 -62.724 -75.320  0.00  0.00    +0.000 HD
ENDROOT
BRANCH   4   7
ATOM      7  C   UNL     1     -63.618 -60.343 -78.040  0.00  0.00    +0.000 A 
ATOM      8  C   UNL     1     -63.966 -59.111 -78.599  0.00  0.00    +0.000 A 
ATOM      9  C   UNL     1     -63.205 -58.558 -79.626  0.00  0.00    +0.000 A 
ATOM     10  C   UNL     1     -62.080 -59.238 -80.079  0.00  0.00    +0.000 A 
ATOM     11  F   UNL     1     -61.347 -58.712 -81.070  0.00  0.00    +0.000 F 
ATOM     12  C   UNL     1     -61.705 -60.456 -79.524  0.00  0.00    +0.000 A 
ATOM     13  C   UNL     1     -62.474 -61.001 -78.498  0.00  0.00    +0.000 A 
ENDBRANCH   4   7
BRANCH   3  15
ATOM     14  N   UNL     1     -66.367 -64.795 -79.978  0.00  0.00    +0.000 NA
ATOM     15  C   UNL     1     -65.644 -62.952 -77.989  0.00  0.00    +0.000 A 
ATOM     16  C   UNL     1     -66.438 -62.560 -79.065  0.00  0.00    +0.000 A 
ATOM     17  C   UNL     1     -65.205 -64.274 -77.925  0.00  0.00    +0.000 A 
ATOM     18  C   UNL     1     -66.771 -63.508 -80.019  0.00  0.00    +0.000 A 
ATOM     19  C   UNL     1     -65.595 -65.147 -78.928  0.00  0.00    +0.000 A 
ENDBRANCH   3  15
BRANCH   5  20
ATOM     20  C   UNL     1     -65.362 -60.868 -73.495  0.00  0.00    +0.000 A 
ATOM     21  C   UNL     1     -64.503 -61.436 -72.550  0.00  0.00    +0.000 A 
ATOM     22  C   UNL     1     -66.449 -60.108 -73.051  0.00  0.00    +0.000 A 
ATOM     23  C   UNL     1     -64.722 -61.252 -71.186  0.00  0.00    +0.000 A 
ATOM     24  C   UNL     1     -66.676 -59.919 -71.690  0.00  0.00    +0.000 A 
ATOM     25  C   UNL     1     -65.810 -60.493 -70.768  0.00  0.00    +0.000 A 
BRANCH  25  26
ATOM     26  O   UNL     1     -66.051 -60.295 -69.440  0.00  0.00    +0.000 OA
ATOM     27  H   UNL     1     -66.977 -60.012 -69.337  0.00  0.00    +0.000 HD
ENDBRANCH  25  26
ENDBRANCH   5  20
TORSDOF 4
ENDMDL
MODEL 3
REMARK VINA RESULT:      -5.8     26.621     30.030
REMARK  Name = SB_202190.pdbqt.pdb
REMARK  4 active torsions:
REMARK  status: ('A' for Active; 'I' for Inactive)
REMARK    1  A    between atoms: C_4  and  C_7
REMARK    2  A    between atoms: C_5  and  C_19
REMARK    3  A    between atoms: C_6  and  C_8
REMARK    4  A    between atoms: C_15  and  O_26
REMARK                            x       y       z     vdW  Elec       q    Type
REMARK                         _______ _______ _______ _____ _____    ______ ____
ROOT
ATOM      1  N   UNL     1     -70.368 -55.364 -31.846  0.00  0.00    +0.000 N 
ATOM      2  N   UNL     1     -70.400 -57.198 -30.635  0.00  0.00    +0.000 NA
ATOM      3  C   UNL     1     -71.164 -55.058 -30.761  0.00  0.00    +0.000 A 
ATOM      4  C   UNL     1     -71.188 -56.241 -30.035  0.00  0.00    +0.000 A 
ATOM      5  C   UNL     1     -69.912 -56.655 -31.731  0.00  0.00    +0.000 A 
ATOM      6  H   UNL     1     -70.122 -54.730 -32.593  0.00  0.00    +0.000 HD
ENDROOT
BRANCH   4   7
ATOM      7  C   UNL     1     -71.921 -56.528 -28.820  0.00  0.00    +0.000 A 
ATOM      8  C   UNL     1     -73.283 -56.241 -28.707  0.00  0.00    +0.000 A 
ATOM      9  C   UNL     1     -73.982 -56.566 -27.547  0.00  0.00    +0.000 A 
ATOM     10  C   UNL     1     -73.312 -57.196 -26.505  0.00  0.00    +0.000 A 
ATOM     11  F   UNL     1     -73.980 -57.506 -25.385  0.00  0.00    +0.000 F 
ATOM     12  C   UNL     1     -71.961 -57.506 -26.603  0.00  0.00    +0.000 A 
ATOM     13  C   UNL     1     -71.270 -57.177 -27.767  0.00  0.00    +0.000 A 
ENDBRANCH   4   7
BRANCH   3  15
ATOM     14  N   UNL     1     -72.776 -51.146 -30.212  0.00  0.00    +0.000 NA
ATOM     15  C   UNL     1     -71.731 -53.727 -30.562  0.00  0.00    +0.000 A 
ATOM     16  C   UNL     1     -71.467 -53.006 -29.399  0.00  0.00    +0.000 A 
ATOM     17  C   UNL     1     -72.514 -53.137 -31.554  0.00  0.00    +0.000 A 
ATOM     18  C   UNL     1     -72.009 -51.737 -29.272  0.00  0.00    +0.000 A 
ATOM     19  C   UNL     1     -73.012 -51.863 -31.330  0.00  0.00    +0.000 A 
ENDBRANCH   3  15
BRANCH   5  20
ATOM     20  C   UNL     1     -69.024 -57.299 -32.692  0.00  0.00    +0.000 A 
ATOM     21  C   UNL     1     -69.177 -57.043 -34.057  0.00  0.00    +0.000 A 
ATOM     22  C   UNL     1     -68.014 -58.172 -32.277  0.00  0.00    +0.000 A 
ATOM     23  C   UNL     1     -68.341 -57.645 -34.994  0.00  0.00    +0.000 A 
ATOM     24  C   UNL     1     -67.172 -58.780 -33.205  0.00  0.00    +0.000 A 
ATOM     25  C   UNL     1     -67.343 -58.511 -34.558  0.00  0.00    +0.000 A 
BRANCH  25  26
ATOM     26  O   UNL     1     -66.507 -59.116 -35.450  0.00  0.00    +0.000 OA
ATOM     27  H   UNL     1     -66.613 -60.079 -35.361  0.00  0.00    +0.000 HD
ENDBRANCH  25  26
ENDBRANCH   5  20
TORSDOF 4
ENDMDL
MODEL 4
REMARK VINA RESULT:      -5.7     21.573     24.596
REMARK  Name = SB_202190.pdbqt.pdb
REMARK  4 active torsions:
REMARK  status: ('A' for Active; 'I' for Inactive)
REMARK    1  A    between atoms: C_4  and  C_7
REMARK    2  A    between atoms: C_5  and  C_19
REMARK    3  A    between atoms: C_6  and  C_8
REMARK    4  A    between atoms: C_15  and  O_26
REMARK                            x       y       z     vdW  Elec       q    Type
REMARK                         _______ _______ _______ _____ _____    ______ ____
ROOT
ATOM      1  N   UNL     1     -65.256 -61.844 -76.893  0.00  0.00    +0.000 N 
ATOM      2  N   UNL     1     -64.266 -60.426 -75.535  0.00  0.00    +0.000 NA
ATOM      3  C   UNL     1     -65.857 -62.049 -75.667  0.00  0.00    +0.000 A 
ATOM      4  C   UNL     1     -65.191 -61.165 -74.830  0.00  0.00    +0.000 A 
ATOM      5  C   UNL     1     -64.314 -60.849 -76.781  0.00  0.00    +0.000 A 
ATOM      6  H   UNL     1     -65.494 -62.319 -77.752  0.00  0.00    +0.000 HD
ENDROOT
BRANCH   4   7
ATOM      7  C   UNL     1     -65.364 -60.984 -73.404  0.00  0.00    +0.000 A 
ATOM      8  C   UNL     1     -64.468 -61.538 -72.487  0.00  0.00    +0.000 A 
ATOM      9  C   UNL     1     -64.623 -61.316 -71.121  0.00  0.00    +0.000 A 
ATOM     10  C   UNL     1     -65.673 -60.520 -70.678  0.00  0.00    +0.000 A 
ATOM     11  F   UNL     1     -65.829 -60.307 -69.365  0.00  0.00    +0.000 F 
ATOM     12  C   UNL     1     -66.566 -59.944 -71.575  0.00  0.00    +0.000 A 
ATOM     13  C   UNL     1     -66.402 -60.173 -72.939  0.00  0.00    +0.000 A 
ENDBRANCH   4   7
BRANCH   3  15
ATOM     14  N   UNL     1     -69.069 -64.817 -75.202  0.00  0.00    +0.000 NA
ATOM     15  C   UNL     1     -66.957 -62.992 -75.489  0.00  0.00    +0.000 A 
ATOM     16  C   UNL     1     -68.280 -62.556 -75.512  0.00  0.00    +0.000 A 
ATOM     17  C   UNL     1     -66.702 -64.355 -75.332  0.00  0.00    +0.000 A 
ATOM     18  C   UNL     1     -69.288 -63.495 -75.363  0.00  0.00    +0.000 A 
ATOM     19  C   UNL     1     -67.780 -65.214 -75.188  0.00  0.00    +0.000 A 
ENDBRANCH   3  15
BRANCH   5  20
ATOM     20  C   UNL     1     -63.506 -60.358 -77.892  0.00  0.00    +0.000 A 
ATOM     21  C   UNL     1     -62.709 -61.248 -78.616  0.00  0.00    +0.000 A 
ATOM     22  C   UNL     1     -63.511 -59.008 -78.252  0.00  0.00    +0.000 A 
ATOM     23  C   UNL     1     -61.929 -60.803 -79.681  0.00  0.00    +0.000 A 
ATOM     24  C   UNL     1     -62.735 -58.552 -79.315  0.00  0.00    +0.000 A 
ATOM     25  C   UNL     1     -61.950 -59.454 -80.021  0.00  0.00    +0.000 A 
BRANCH  25  26
ATOM     26  O   UNL     1     -61.198 -58.986 -81.059  0.00  0.00    +0.000 OA
ATOM     27  H   UNL     1     -60.972 -59.738 -81.635  0.00  0.00    +0.000 HD
ENDBRANCH  25  26
ENDBRANCH   5  20
TORSDOF 4
ENDMDL
MODEL 5
REMARK VINA RESULT:      -5.7     30.813     35.597
REMARK  Name = SB_202190.pdbqt.pdb
REMARK  4 active torsions:
REMARK  status: ('A' for Active; 'I' for Inactive)
REMARK    1  A    between atoms: C_4  and  C_7
REMARK    2  A    between atoms: C_5  and  C_19
REMARK    3  A    between atoms: C_6  and  C_8
REMARK    4  A    between atoms: C_15  and  O_26
REMARK                            x       y       z     vdW  Elec       q    Type
REMARK                         _______ _______ _______ _____ _____    ______ ____
ROOT
ATOM      1  N   UNL     1     -71.711 -59.062 -26.744  0.00  0.00    +0.000 N 
ATOM      2  N   UNL     1     -72.674 -57.144 -26.272  0.00  0.00    +0.000 NA
ATOM      3  C   UNL     1     -72.366 -59.279 -25.549  0.00  0.00    +0.000 A 
ATOM      4  C   UNL     1     -72.935 -58.046 -25.265  0.00  0.00    +0.000 A 
ATOM      5  C   UNL     1     -71.931 -57.771 -27.159  0.00  0.00    +0.000 A 
ATOM      6  H   UNL     1     -71.184 -59.752 -27.260  0.00  0.00    +0.000 HD
ENDROOT
BRANCH   4   7
ATOM      7  C   UNL     1     -73.698 -57.663 -24.095  0.00  0.00    +0.000 A 
ATOM      8  C   UNL     1     -75.086 -57.810 -24.052  0.00  0.00    +0.000 A 
ATOM      9  C   UNL     1     -75.799 -57.479 -22.902  0.00  0.00    +0.000 A 
ATOM     10  C   UNL     1     -75.111 -57.016 -21.787  0.00  0.00    +0.000 A 
ATOM     11  F   UNL     1     -75.793 -56.692 -20.681  0.00  0.00    +0.000 F 
ATOM     12  C   UNL     1     -73.728 -56.879 -21.802  0.00  0.00    +0.000 A 
ATOM     13  C   UNL     1     -73.024 -57.212 -22.957  0.00  0.00    +0.000 A 
ENDBRANCH   4   7
BRANCH   3  15
ATOM     14  N   UNL     1     -72.474 -63.092 -23.638  0.00  0.00    +0.000 NA
ATOM     15  C   UNL     1     -72.384 -60.586 -24.898  0.00  0.00    +0.000 A 
ATOM     16  C   UNL     1     -72.049 -60.717 -23.552  0.00  0.00    +0.000 A 
ATOM     17  C   UNL     1     -72.776 -61.723 -25.605  0.00  0.00    +0.000 A 
ATOM     18  C   UNL     1     -72.105 -61.976 -22.976  0.00  0.00    +0.000 A 
ATOM     19  C   UNL     1     -72.798 -62.938 -24.939  0.00  0.00    +0.000 A 
ENDBRANCH   3  15
BRANCH   5  20
ATOM     20  C   UNL     1     -71.407 -57.209 -28.399  0.00  0.00    +0.000 A 
ATOM     21  C   UNL     1     -71.424 -57.974 -29.569  0.00  0.00    +0.000 A 
ATOM     22  C   UNL     1     -70.885 -55.913 -28.447  0.00  0.00    +0.000 A 
ATOM     23  C   UNL     1     -70.929 -57.459 -30.765  0.00  0.00    +0.000 A 
ATOM     24  C   UNL     1     -70.387 -55.389 -29.637  0.00  0.00    +0.000 A 
ATOM     25  C   UNL     1     -70.414 -56.167 -30.788  0.00  0.00    +0.000 A 
BRANCH  25  26
ATOM     26  O   UNL     1     -69.922 -55.634 -31.943  0.00  0.00    +0.000 OA
ATOM     27  H   UNL     1     -70.516 -55.887 -32.672  0.00  0.00    +0.000 HD
ENDBRANCH  25  26
ENDBRANCH   5  20
TORSDOF 4
ENDMDL
MODEL 6
REMARK VINA RESULT:      -5.7      3.937      7.364
REMARK  Name = SB_202190.pdbqt.pdb
REMARK  4 active torsions:
REMARK  status: ('A' for Active; 'I' for Inactive)
REMARK    1  A    between atoms: C_4  and  C_7
REMARK    2  A    between atoms: C_5  and  C_19
REMARK    3  A    between atoms: C_6  and  C_8
REMARK    4  A    between atoms: C_15  and  O_26
REMARK                            x       y       z     vdW  Elec       q    Type
REMARK                         _______ _______ _______ _____ _____    ______ ____
ROOT
ATOM      1  N   UNL     1     -64.753 -46.652 -58.512  0.00  0.00    +0.000 N 
ATOM      2  N   UNL     1     -63.234 -46.513 -56.929  0.00  0.00    +0.000 NA
ATOM      3  C   UNL     1     -65.398 -47.069 -57.364  0.00  0.00    +0.000 A 
ATOM      4  C   UNL     1     -64.407 -46.998 -56.395  0.00  0.00    +0.000 A 
ATOM      5  C   UNL     1     -63.457 -46.310 -58.210  0.00  0.00    +0.000 A 
ATOM      6  H   UNL     1     -65.174 -46.570 -59.427  0.00  0.00    +0.000 HD
ENDROOT
BRANCH   4   7
ATOM      7  C   UNL     1     -64.496 -47.374 -54.999  0.00  0.00    +0.000 A 
ATOM      8  C   UNL     1     -64.240 -48.682 -54.581  0.00  0.00    +0.000 A 
ATOM      9  C   UNL     1     -64.284 -49.015 -53.230  0.00  0.00    +0.000 A 
ATOM     10  C   UNL     1     -64.571 -48.027 -52.296  0.00  0.00    +0.000 A 
ATOM     11  F   UNL     1     -64.620 -48.345 -50.995  0.00  0.00    +0.000 F 
ATOM     12  C   UNL     1     -64.811 -46.715 -52.689  0.00  0.00    +0.000 A 
ATOM     13  C   UNL     1     -64.765 -46.392 -54.043  0.00  0.00    +0.000 A 
ENDBRANCH   4   7
BRANCH   3  15
ATOM     14  N   UNL     1     -69.541 -48.083 -57.277  0.00  0.00    +0.000 NA
ATOM     15  C   UNL     1     -66.815 -47.422 -57.353  0.00  0.00    +0.000 A 
ATOM     16  C   UNL     1     -67.221 -48.732 -57.107  0.00  0.00    +0.000 A 
ATOM     17  C   UNL     1     -67.789 -46.443 -57.549  0.00  0.00    +0.000 A 
ATOM     18  C   UNL     1     -68.578 -49.009 -57.083  0.00  0.00    +0.000 A 
ATOM     19  C   UNL     1     -69.121 -46.823 -57.508  0.00  0.00    +0.000 A 
ENDBRANCH   3  15
BRANCH   5  20
ATOM     20  C   UNL     1     -62.497 -45.803 -59.184  0.00  0.00    +0.000 A 
ATOM     21  C   UNL     1     -61.991 -46.656 -60.169  0.00  0.00    +0.000 A 
ATOM     22  C   UNL     1     -62.068 -44.473 -59.157  0.00  0.00    +0.000 A 
ATOM     23  C   UNL     1     -61.073 -46.194 -61.110  0.00  0.00    +0.000 A 
ATOM     24  C   UNL     1     -61.151 -44.001 -60.093  0.00  0.00    +0.000 A 
ATOM     25  C   UNL     1     -60.661 -44.866 -61.063  0.00  0.00    +0.000 A 
BRANCH  25  26
ATOM     26  O   UNL     1     -59.764 -44.383 -61.971  0.00  0.00    +0.000 OA
ATOM     27  H   UNL     1     -59.385 -43.560 -61.616  0.00  0.00    +0.000 HD
ENDBRANCH  25  26
ENDBRANCH   5  20
TORSDOF 4
ENDMDL
MODEL 7
REMARK VINA RESULT:      -5.7      3.506      6.406
REMARK  Name = SB_202190.pdbqt.pdb
REMARK  4 active torsions:
REMARK  status: ('A' for Active; 'I' for Inactive)
REMARK    1  A    between atoms: C_4  and  C_7
REMARK    2  A    between atoms: C_5  and  C_19
REMARK    3  A    between atoms: C_6  and  C_8
REMARK    4  A    between atoms: C_15  and  O_26
REMARK                            x       y       z     vdW  Elec       q    Type
REMARK                         _______ _______ _______ _____ _____    ______ ____
ROOT
ATOM      1  N   UNL     1     -63.270 -46.651 -56.756  0.00  0.00    +0.000 N 
ATOM      2  N   UNL     1     -64.862 -46.682 -58.271  0.00  0.00    +0.000 NA
ATOM      3  C   UNL     1     -64.381 -47.131 -56.092  0.00  0.00    +0.000 A 
ATOM      4  C   UNL     1     -65.371 -47.109 -57.065  0.00  0.00    +0.000 A 
ATOM      5  C   UNL     1     -63.591 -46.406 -58.069  0.00  0.00    +0.000 A 
ATOM      6  H   UNL     1     -62.350 -46.534 -56.355  0.00  0.00    +0.000 HD
ENDROOT
BRANCH   4   7
ATOM      7  C   UNL     1     -66.771 -47.453 -56.922  0.00  0.00    +0.000 A 
ATOM      8  C   UNL     1     -67.228 -48.750 -57.162  0.00  0.00    +0.000 A 
ATOM      9  C   UNL     1     -68.570 -49.074 -56.975  0.00  0.00    +0.000 A 
ATOM     10  C   UNL     1     -69.449 -48.094 -56.529  0.00  0.00    +0.000 A 
ATOM     11  F   UNL     1     -70.741 -48.401 -56.352  0.00  0.00    +0.000 F 
ATOM     12  C   UNL     1     -69.011 -46.802 -56.266  0.00  0.00    +0.000 A 
ATOM     13  C   UNL     1     -67.667 -46.487 -56.457  0.00  0.00    +0.000 A 
ENDBRANCH   4   7
BRANCH   3  15
ATOM     14  N   UNL     1     -64.174 -48.371 -52.016  0.00  0.00    +0.000 NA
ATOM     15  C   UNL     1     -64.329 -47.559 -54.697  0.00  0.00    +0.000 A 
ATOM     16  C   UNL     1     -64.258 -48.911 -54.368  0.00  0.00    +0.000 A 
ATOM     17  C   UNL     1     -64.310 -46.616 -53.669  0.00  0.00    +0.000 A 
ATOM     18  C   UNL     1     -64.187 -49.262 -53.030  0.00  0.00    +0.000 A 
ATOM     19  C   UNL     1     -64.238 -47.069 -52.362  0.00  0.00    +0.000 A 
ENDBRANCH   3  15
BRANCH   5  20
ATOM     20  C   UNL     1     -62.645 -45.914 -59.065  0.00  0.00    +0.000 A 
ATOM     21  C   UNL     1     -62.213 -44.586 -59.015  0.00  0.00    +0.000 A 
ATOM     22  C   UNL     1     -62.155 -46.746 -60.076  0.00  0.00    +0.000 A 
ATOM     23  C   UNL     1     -61.310 -44.094 -59.954  0.00  0.00    +0.000 A 
ATOM     24  C   UNL     1     -61.253 -46.264 -61.020  0.00  0.00    +0.000 A 
ATOM     25  C   UNL     1     -60.837 -44.940 -60.951  0.00  0.00    +0.000 A 
BRANCH  25  26
ATOM     26  O   UNL     1     -59.951 -44.489 -61.886  0.00  0.00    +0.000 OA
ATOM     27  H   UNL     1     -60.207 -44.857 -62.750  0.00  0.00    +0.000 HD
ENDBRANCH  25  26
ENDBRANCH   5  20
TORSDOF 4
ENDMDL
MODEL 8
REMARK VINA RESULT:      -5.7     34.513     38.003
REMARK  Name = SB_202190.pdbqt.pdb
REMARK  4 active torsions:
REMARK  status: ('A' for Active; 'I' for Inactive)
REMARK    1  A    between atoms: C_4  and  C_7
REMARK    2  A    between atoms: C_5  and  C_19
REMARK    3  A    between atoms: C_6  and  C_8
REMARK    4  A    between atoms: C_15  and  O_26
REMARK                            x       y       z     vdW  Elec       q    Type
REMARK                         _______ _______ _______ _____ _____    ______ ____
ROOT
ATOM      1  N   UNL     1     -61.757 -52.804 -21.960  0.00  0.00    +0.000 N 
ATOM      2  N   UNL     1     -62.488 -54.670 -21.056  0.00  0.00    +0.000 NA
ATOM      3  C   UNL     1     -62.426 -52.407 -20.819  0.00  0.00    +0.000 A 
ATOM      4  C   UNL     1     -62.898 -53.600 -20.291  0.00  0.00    +0.000 A 
ATOM      5  C   UNL     1     -61.801 -54.174 -22.063  0.00  0.00    +0.000 A 
ATOM      6  H   UNL     1     -61.274 -52.192 -22.602  0.00  0.00    +0.000 HD
ENDROOT
BRANCH   4   7
ATOM      7  C   UNL     1     -63.725 -53.791 -19.118  0.00  0.00    +0.000 A 
ATOM      8  C   UNL     1     -65.041 -53.326 -19.073  0.00  0.00    +0.000 A 
ATOM      9  C   UNL     1     -65.837 -53.559 -17.954  0.00  0.00    +0.000 A 
ATOM     10  C   UNL     1     -65.313 -54.277 -16.885  0.00  0.00    +0.000 A 
ATOM     11  F   UNL     1     -66.074 -54.499 -15.805  0.00  0.00    +0.000 F 
ATOM     12  C   UNL     1     -64.012 -54.765 -16.917  0.00  0.00    +0.000 A 
ATOM     13  C   UNL     1     -63.223 -54.526 -18.040  0.00  0.00    +0.000 A 
ENDBRANCH   4   7
BRANCH   3  15
ATOM     14  N   UNL     1     -62.606 -48.343 -19.534  0.00  0.00    +0.000 NA
ATOM     15  C   UNL     1     -62.481 -51.010 -20.397  0.00  0.00    +0.000 A 
ATOM     16  C   UNL     1     -63.592 -50.221 -20.688  0.00  0.00    +0.000 A 
ATOM     17  C   UNL     1     -61.438 -50.453 -19.658  0.00  0.00    +0.000 A 
ATOM     18  C   UNL     1     -63.605 -48.909 -20.244  0.00  0.00    +0.000 A 
ATOM     19  C   UNL     1     -61.545 -49.129 -19.262  0.00  0.00    +0.000 A 
ENDBRANCH   3  15
BRANCH   5  20
ATOM     20  C   UNL     1     -61.172 -54.934 -23.137  0.00  0.00    +0.000 A 
ATOM     21  C   UNL     1     -61.151 -54.414 -24.435  0.00  0.00    +0.000 A 
ATOM     22  C   UNL     1     -60.583 -56.179 -22.898  0.00  0.00    +0.000 A 
ATOM     23  C   UNL     1     -60.556 -55.122 -25.476  0.00  0.00    +0.000 A 
ATOM     24  C   UNL     1     -59.986 -56.895 -23.933  0.00  0.00    +0.000 A 
ATOM     25  C   UNL     1     -59.977 -56.359 -25.215  0.00  0.00    +0.000 A 
BRANCH  25  26
ATOM     26  O   UNL     1     -59.385 -57.077 -26.214  0.00  0.00    +0.000 OA
ATOM     27  H   UNL     1     -59.382 -56.531 -27.019  0.00  0.00    +0.000 HD
ENDBRANCH  25  26
ENDBRANCH   5  20
TORSDOF 4
ENDMDL
MODEL 9
REMARK VINA RESULT:      -5.6     26.354     30.140
REMARK  Name = SB_202190.pdbqt.pdb
REMARK  4 active torsions:
REMARK  status: ('A' for Active; 'I' for Inactive)
REMARK    1  A    between atoms: C_4  and  C_7
REMARK    2  A    between atoms: C_5  and  C_19
REMARK    3  A    between atoms: C_6  and  C_8
REMARK    4  A    between atoms: C_15  and  O_26
REMARK                            x       y       z     vdW  Elec       q    Type
REMARK                         _______ _______ _______ _____ _____    ______ ____
ROOT
ATOM      1  N   UNL     1     -70.361 -57.574 -30.640  0.00  0.00    +0.000 N 
ATOM      2  N   UNL     1     -70.182 -55.598 -31.586  0.00  0.00    +0.000 NA
ATOM      3  C   UNL     1     -71.135 -56.738 -29.862  0.00  0.00    +0.000 A 
ATOM      4  C   UNL     1     -70.977 -55.498 -30.466  0.00  0.00    +0.000 A 
ATOM      5  C   UNL     1     -69.814 -56.859 -31.678  0.00  0.00    +0.000 A 
ATOM      6  H   UNL     1     -70.241 -58.567 -30.498  0.00  0.00    +0.000 HD
ENDROOT
BRANCH   4   7
ATOM      7  C   UNL     1     -71.518 -54.223 -30.043  0.00  0.00    +0.000 A 
ATOM      8  C   UNL     1     -72.644 -54.149 -29.220  0.00  0.00    +0.000 A 
ATOM      9  C   UNL     1     -73.123 -52.915 -28.785  0.00  0.00    +0.000 A 
ATOM     10  C   UNL     1     -72.457 -51.756 -29.165  0.00  0.00    +0.000 A 
ATOM     11  F   UNL     1     -72.918 -50.567 -28.752  0.00  0.00    +0.000 F 
ATOM     12  C   UNL     1     -71.324 -51.809 -29.968  0.00  0.00    +0.000 A 
ATOM     13  C   UNL     1     -70.853 -53.047 -30.399  0.00  0.00    +0.000 A 
ENDBRANCH   4   7
BRANCH   3  15
ATOM     14  N   UNL     1     -73.373 -58.222 -26.547  0.00  0.00    +0.000 NA
ATOM     15  C   UNL     1     -71.911 -57.229 -28.726  0.00  0.00    +0.000 A 
ATOM     16  C   UNL     1     -73.170 -57.794 -28.915  0.00  0.00    +0.000 A 
ATOM     17  C   UNL     1     -71.386 -57.176 -27.436  0.00  0.00    +0.000 A 
ATOM     18  C   UNL     1     -73.854 -58.267 -27.807  0.00  0.00    +0.000 A 
ATOM     19  C   UNL     1     -72.150 -57.674 -26.393  0.00  0.00    +0.000 A 
ENDBRANCH   3  15
BRANCH   5  20
ATOM     20  C   UNL     1     -68.960 -57.437 -32.710  0.00  0.00    +0.000 A 
ATOM     21  C   UNL     1     -67.956 -58.341 -32.353  0.00  0.00    +0.000 A 
ATOM     22  C   UNL     1     -69.123 -57.105 -34.058  0.00  0.00    +0.000 A 
ATOM     23  C   UNL     1     -67.129 -58.906 -33.321  0.00  0.00    +0.000 A 
ATOM     24  C   UNL     1     -68.301 -57.664 -35.033  0.00  0.00    +0.000 A 
ATOM     25  C   UNL     1     -67.310 -58.561 -34.656  0.00  0.00    +0.000 A 
BRANCH  25  26
ATOM     26  O   UNL     1     -66.515 -59.097 -35.627  0.00  0.00    +0.000 OA
ATOM     27  H   UNL     1     -66.459 -58.460 -36.361  0.00  0.00    +0.000 HD
ENDBRANCH  25  26
ENDBRANCH   5  20
TORSDOF 4
ENDMDL
