MODEL 1
REMARK VINA RESULT:      -6.8      0.000      0.000
REMARK  Name = Staurosporine.pdbqt.pdb
REMARK  2 active torsions:
REMARK  status: ('A' for Active; 'I' for Inactive)
REMARK    1  A    between atoms: C_3  and  O_11
REMARK    2  A    between atoms: C_5  and  N_8
REMARK                            x       y       z     vdW  Elec       q    Type
REMARK                         _______ _______ _______ _____ _____    ______ ____
ROOT
ATOM      1  O   UNL     1     -72.848 -55.178 -36.353  0.00  0.00    +0.000 OA
ATOM      2  C   UNL     1     -71.962 -54.928 -37.478  0.00  0.00    +0.000 C 
ATOM      3  C   UNL     1     -71.595 -53.447 -37.701  0.00  0.00    +0.000 C 
ATOM      4  C   UNL     1     -72.435 -54.561 -35.183  0.00  0.00    +0.000 C 
ATOM      5  C   UNL     1     -71.698 -52.524 -36.574  0.00  0.00    +0.000 C 
ATOM      6  C   UNL     1     -72.151 -53.200 -35.426  0.00  0.00    +0.000 C 
ATOM      7  C   UNL     1     -72.817 -55.376 -38.712  0.00  0.00    +0.000 C 
ATOM      8  N   UNL     1     -70.768 -55.786 -37.299  0.00  0.00    +0.000 N 
ATOM      9  C   UNL     1     -70.206 -56.340 -36.177  0.00  0.00    +0.000 A 
ATOM     10  C   UNL     1     -70.565 -56.124 -34.843  0.00  0.00    +0.000 A 
ATOM     11  C   UNL     1     -69.090 -57.175 -36.322  0.00  0.00    +0.000 A 
ATOM     12  N   UNL     1     -71.535 -55.270 -34.415  0.00  0.00    +0.000 N 
ATOM     13  C   UNL     1     -69.736 -56.743 -33.895  0.00  0.00    +0.000 A 
ATOM     14  C   UNL     1     -71.266 -55.256 -33.032  0.00  0.00    +0.000 A 
ATOM     15  C   UNL     1     -70.205 -56.173 -32.691  0.00  0.00    +0.000 A 
ATOM     16  C   UNL     1     -71.916 -54.509 -32.035  0.00  0.00    +0.000 A 
ATOM     17  C   UNL     1     -69.835 -56.281 -31.336  0.00  0.00    +0.000 A 
ATOM     18  C   UNL     1     -70.492 -55.531 -30.361  0.00  0.00    +0.000 A 
ATOM     19  C   UNL     1     -71.513 -54.660 -30.709  0.00  0.00    +0.000 A 
ATOM     20  C   UNL     1     -68.620 -57.591 -34.031  0.00  0.00    +0.000 A 
ATOM     21  C   UNL     1     -68.275 -57.832 -35.390  0.00  0.00    +0.000 A 
ATOM     22  C   UNL     1     -67.693 -58.261 -33.148  0.00  0.00    +0.000 C 
ATOM     23  C   UNL     1     -67.067 -58.700 -35.378  0.00  0.00    +0.000 C 
ATOM     24  N   UNL     1     -66.827 -58.879 -34.061  0.00  0.00    +0.000 N 
ATOM     25  H   UNL     1     -66.057 -59.439 -33.725  0.00  0.00    +0.000 HD
ATOM     26  O   UNL     1     -67.586 -58.343 -31.933  0.00  0.00    +0.000 OA
ATOM     27  C   UNL     1     -68.872 -57.147 -37.709  0.00  0.00    +0.000 A 
ATOM     28  C   UNL     1     -69.881 -56.292 -38.288  0.00  0.00    +0.000 A 
ATOM     29  C   UNL     1     -67.915 -57.732 -38.563  0.00  0.00    +0.000 A 
ATOM     30  C   UNL     1     -69.889 -56.068 -39.676  0.00  0.00    +0.000 A 
ATOM     31  C   UNL     1     -68.922 -56.672 -40.480  0.00  0.00    +0.000 A 
ATOM     32  C   UNL     1     -67.949 -57.493 -39.935  0.00  0.00    +0.000 A 
ENDROOT
BRANCH   5  33
ATOM     33  N   UNL     1     -71.199 -51.193 -36.585  0.00  0.00    +0.000 N 
ATOM     34  C   UNL     1     -72.187 -50.169 -36.848  0.00  0.00    +0.000 C 
ATOM     35  H   UNL     1     -70.299 -51.074 -37.055  0.00  0.00    +0.000 HD
ENDBRANCH   5  33
BRANCH   3  36
ATOM     36  O   UNL     1     -70.714 -53.198 -38.731  0.00  0.00    +0.000 OA
ATOM     37  C   UNL     1     -71.316 -52.470 -39.769  0.00  0.00    +0.000 C 
ENDBRANCH   3  36
TORSDOF 2
ENDMDL
MODEL 2
REMARK VINA RESULT:      -6.7     20.281     24.542
REMARK  Name = Staurosporine.pdbqt.pdb
REMARK  2 active torsions:
REMARK  status: ('A' for Active; 'I' for Inactive)
REMARK    1  A    between atoms: C_3  and  O_11
REMARK    2  A    between atoms: C_5  and  N_8
REMARK                            x       y       z     vdW  Elec       q    Type
REMARK                         _______ _______ _______ _____ _____    ______ ____
ROOT
ATOM      1  O   UNL     1     -64.914 -43.712 -54.649  0.00  0.00    +0.000 OA
ATOM      2  C   UNL     1     -63.463 -43.636 -54.609  0.00  0.00    +0.000 C 
ATOM      3  C   UNL     1     -62.802 -44.415 -53.454  0.00  0.00    +0.000 C 
ATOM      4  C   UNL     1     -65.399 -45.006 -54.547  0.00  0.00    +0.000 C 
ATOM      5  C   UNL     1     -63.540 -45.517 -52.841  0.00  0.00    +0.000 C 
ATOM      6  C   UNL     1     -64.799 -45.664 -53.453  0.00  0.00    +0.000 C 
ATOM      7  C   UNL     1     -63.191 -42.116 -54.348  0.00  0.00    +0.000 C 
ATOM      8  N   UNL     1     -62.963 -44.062 -55.936  0.00  0.00    +0.000 N 
ATOM      9  C   UNL     1     -63.517 -44.860 -56.905  0.00  0.00    +0.000 A 
ATOM     10  C   UNL     1     -64.697 -45.607 -56.828  0.00  0.00    +0.000 A 
ATOM     11  C   UNL     1     -62.825 -45.041 -58.110  0.00  0.00    +0.000 A 
ATOM     12  N   UNL     1     -65.499 -45.705 -55.732  0.00  0.00    +0.000 N 
ATOM     13  C   UNL     1     -64.960 -46.422 -57.939  0.00  0.00    +0.000 A 
ATOM     14  C   UNL     1     -66.339 -46.764 -56.128  0.00  0.00    +0.000 A 
ATOM     15  C   UNL     1     -66.054 -47.187 -57.479  0.00  0.00    +0.000 A 
ATOM     16  C   UNL     1     -67.369 -47.370 -55.389  0.00  0.00    +0.000 A 
ATOM     17  C   UNL     1     -66.830 -48.231 -58.021  0.00  0.00    +0.000 A 
ATOM     18  C   UNL     1     -67.846 -48.820 -57.272  0.00  0.00    +0.000 A 
ATOM     19  C   UNL     1     -68.108 -48.396 -55.978  0.00  0.00    +0.000 A 
ATOM     20  C   UNL     1     -64.277 -46.603 -59.158  0.00  0.00    +0.000 A 
ATOM     21  C   UNL     1     -63.092 -45.819 -59.244  0.00  0.00    +0.000 A 
ATOM     22  C   UNL     1     -64.436 -47.411 -60.344  0.00  0.00    +0.000 C 
ATOM     23  C   UNL     1     -62.461 -46.141 -60.553  0.00  0.00    +0.000 C 
ATOM     24  N   UNL     1     -63.305 -47.049 -61.088  0.00  0.00    +0.000 N 
ATOM     25  H   UNL     1     -63.146 -47.463 -61.996  0.00  0.00    +0.000 HD
ATOM     26  O   UNL     1     -65.276 -48.218 -60.715  0.00  0.00    +0.000 OA
ATOM     27  C   UNL     1     -61.657 -44.291 -57.900  0.00  0.00    +0.000 A 
ATOM     28  C   UNL     1     -61.742 -43.717 -56.579  0.00  0.00    +0.000 A 
ATOM     29  C   UNL     1     -60.503 -44.038 -58.671  0.00  0.00    +0.000 A 
ATOM     30  C   UNL     1     -60.686 -42.924 -56.096  0.00  0.00    +0.000 A 
ATOM     31  C   UNL     1     -59.566 -42.700 -56.897  0.00  0.00    +0.000 A 
ATOM     32  C   UNL     1     -59.474 -43.246 -58.166  0.00  0.00    +0.000 A 
ENDROOT
BRANCH   5  33
ATOM     33  N   UNL     1     -62.975 -46.440 -51.919  0.00  0.00    +0.000 N 
ATOM     34  C   UNL     1     -63.865 -47.492 -51.481  0.00  0.00    +0.000 C 
ATOM     35  H   UNL     1     -62.390 -46.020 -51.193  0.00  0.00    +0.000 HD
ENDBRANCH   5  33
BRANCH   3  36
ATOM     36  O   UNL     1     -61.424 -44.397 -53.432  0.00  0.00    +0.000 OA
ATOM     37  C   UNL     1     -60.928 -43.772 -52.278  0.00  0.00    +0.000 C 
ENDBRANCH   3  36
TORSDOF 2
ENDMDL
MODEL 3
REMARK VINA RESULT:      -6.3     34.184     38.259
REMARK  Name = Staurosporine.pdbqt.pdb
REMARK  2 active torsions:
REMARK  status: ('A' for Active; 'I' for Inactive)
REMARK    1  A    between atoms: C_3  and  O_11
REMARK    2  A    between atoms: C_5  and  N_8
REMARK                            x       y       z     vdW  Elec       q    Type
REMARK                         _______ _______ _______ _____ _____    ______ ____
ROOT
ATOM      1  O   UNL     1     -70.755 -60.654 -74.872  0.00  0.00    +0.000 OA
ATOM      2  C   UNL     1     -69.872 -59.984 -75.813  0.00  0.00    +0.000 C 
ATOM      3  C   UNL     1     -70.164 -58.484 -76.024  0.00  0.00    +0.000 C 
ATOM      4  C   UNL     1     -70.894 -59.975 -73.672  0.00  0.00    +0.000 C 
ATOM      5  C   UNL     1     -70.882 -57.758 -74.980  0.00  0.00    +0.000 C 
ATOM      6  C   UNL     1     -71.201 -58.619 -73.914  0.00  0.00    +0.000 C 
ATOM      7  C   UNL     1     -70.182 -60.703 -77.169  0.00  0.00    +0.000 C 
ATOM      8  N   UNL     1     -68.482 -60.232 -75.367  0.00  0.00    +0.000 N 
ATOM      9  C   UNL     1     -67.962 -60.533 -74.133  0.00  0.00    +0.000 A 
ATOM     10  C   UNL     1     -68.631 -60.564 -72.905  0.00  0.00    +0.000 A 
ATOM     11  C   UNL     1     -66.587 -60.780 -74.021  0.00  0.00    +0.000 A 
ATOM     12  N   UNL     1     -69.942 -60.249 -72.713  0.00  0.00    +0.000 N 
ATOM     13  C   UNL     1     -67.815 -60.796 -71.788  0.00  0.00    +0.000 A 
ATOM     14  C   UNL     1     -69.981 -60.184 -71.306  0.00  0.00    +0.000 A 
ATOM     15  C   UNL     1     -68.712 -60.551 -70.725  0.00  0.00    +0.000 A 
ATOM     16  C   UNL     1     -71.074 -59.851 -70.489  0.00  0.00    +0.000 A 
ATOM     17  C   UNL     1     -68.604 -60.550 -69.320  0.00  0.00    +0.000 A 
ATOM     18  C   UNL     1     -69.700 -60.216 -68.527  0.00  0.00    +0.000 A 
ATOM     19  C   UNL     1     -70.913 -59.871 -69.104  0.00  0.00    +0.000 A 
ATOM     20  C   UNL     1     -66.436 -61.055 -71.666  0.00  0.00    +0.000 A 
ATOM     21  C   UNL     1     -65.764 -61.052 -72.920  0.00  0.00    +0.000 A 
ATOM     22  C   UNL     1     -65.499 -61.287 -70.591  0.00  0.00    +0.000 C 
ATOM     23  C   UNL     1     -64.324 -61.296 -72.635  0.00  0.00    +0.000 C 
ATOM     24  N   UNL     1     -64.291 -61.413 -71.289  0.00  0.00    +0.000 N 
ATOM     25  H   UNL     1     -63.434 -61.590 -70.785  0.00  0.00    +0.000 HD
ATOM     26  O   UNL     1     -65.606 -61.372 -69.376  0.00  0.00    +0.000 OA
ATOM     27  C   UNL     1     -66.140 -60.592 -75.339  0.00  0.00    +0.000 A 
ATOM     28  C   UNL     1     -67.289 -60.245 -76.141  0.00  0.00    +0.000 A 
ATOM     29  C   UNL     1     -64.876 -60.650 -75.963  0.00  0.00    +0.000 A 
ATOM     30  C   UNL     1     -67.125 -59.981 -77.511  0.00  0.00    +0.000 A 
ATOM     31  C   UNL     1     -65.855 -60.054 -78.084  0.00  0.00    +0.000 A 
ATOM     32  C   UNL     1     -64.746 -60.386 -77.324  0.00  0.00    +0.000 A 
ENDROOT
BRANCH   5  33
ATOM     33  N   UNL     1     -71.033 -56.344 -74.952  0.00  0.00    +0.000 N 
ATOM     34  C   UNL     1     -71.754 -55.827 -73.809  0.00  0.00    +0.000 C 
ATOM     35  H   UNL     1     -71.260 -55.917 -75.852  0.00  0.00    +0.000 HD
ENDBRANCH   5  33
BRANCH   3  36
ATOM     36  O   UNL     1     -69.303 -57.821 -76.873  0.00  0.00    +0.000 OA
ATOM     37  C   UNL     1     -69.967 -57.320 -78.003  0.00  0.00    +0.000 C 
ENDBRANCH   3  36
TORSDOF 2
ENDMDL
MODEL 4
REMARK VINA RESULT:      -6.3     20.700     25.108
REMARK  Name = Staurosporine.pdbqt.pdb
REMARK  2 active torsions:
REMARK  status: ('A' for Active; 'I' for Inactive)
REMARK    1  A    between atoms: C_3  and  O_11
REMARK    2  A    between atoms: C_5  and  N_8
REMARK                            x       y       z     vdW  Elec       q    Type
REMARK                         _______ _______ _______ _____ _____    ______ ____
ROOT
ATOM      1  O   UNL     1     -65.264 -44.534 -54.933  0.00  0.00    +0.000 OA
ATOM      2  C   UNL     1     -64.070 -44.375 -54.120  0.00  0.00    +0.000 C 
ATOM      3  C   UNL     1     -63.736 -45.576 -53.213  0.00  0.00    +0.000 C 
ATOM      4  C   UNL     1     -65.301 -45.735 -55.623  0.00  0.00    +0.000 C 
ATOM      5  C   UNL     1     -64.262 -46.891 -53.571  0.00  0.00    +0.000 C 
ATOM      6  C   UNL     1     -65.032 -46.807 -54.746  0.00  0.00    +0.000 C 
ATOM      7  C   UNL     1     -64.437 -43.180 -53.176  0.00  0.00    +0.000 C 
ATOM      8  N   UNL     1     -62.957 -44.029 -55.033  0.00  0.00    +0.000 N 
ATOM      9  C   UNL     1     -62.770 -44.269 -56.372  0.00  0.00    +0.000 A 
ATOM     10  C   UNL     1     -63.566 -45.042 -57.223  0.00  0.00    +0.000 A 
ATOM     11  C   UNL     1     -61.623 -43.760 -56.996  0.00  0.00    +0.000 A 
ATOM     12  N   UNL     1     -64.671 -45.744 -56.849  0.00  0.00    +0.000 N 
ATOM     13  C   UNL     1     -63.066 -45.201 -58.524  0.00  0.00    +0.000 A 
ATOM     14  C   UNL     1     -64.880 -46.520 -58.007  0.00  0.00    +0.000 A 
ATOM     15  C   UNL     1     -63.941 -46.177 -59.048  0.00  0.00    +0.000 A 
ATOM     16  C   UNL     1     -65.867 -47.496 -58.223  0.00  0.00    +0.000 A 
ATOM     17  C   UNL     1     -64.040 -46.860 -60.276  0.00  0.00    +0.000 A 
ATOM     18  C   UNL     1     -65.026 -47.826 -60.472  0.00  0.00    +0.000 A 
ATOM     19  C   UNL     1     -65.921 -48.137 -59.460  0.00  0.00    +0.000 A 
ATOM     20  C   UNL     1     -61.921 -44.685 -59.163  0.00  0.00    +0.000 A 
ATOM     21  C   UNL     1     -61.130 -43.875 -58.302  0.00  0.00    +0.000 A 
ATOM     22  C   UNL     1     -61.305 -44.792 -60.465  0.00  0.00    +0.000 C 
ATOM     23  C   UNL     1     -59.947 -43.439 -59.092  0.00  0.00    +0.000 C 
ATOM     24  N   UNL     1     -60.150 -44.015 -60.297  0.00  0.00    +0.000 N 
ATOM     25  H   UNL     1     -59.505 -43.899 -61.066  0.00  0.00    +0.000 HD
ATOM     26  O   UNL     1     -61.605 -45.364 -61.503  0.00  0.00    +0.000 OA
ATOM     27  C   UNL     1     -60.958 -43.129 -55.932  0.00  0.00    +0.000 A 
ATOM     28  C   UNL     1     -61.763 -43.312 -54.748  0.00  0.00    +0.000 A 
ATOM     29  C   UNL     1     -59.738 -42.431 -55.816  0.00  0.00    +0.000 A 
ATOM     30  C   UNL     1     -61.320 -42.791 -53.520  0.00  0.00    +0.000 A 
ATOM     31  C   UNL     1     -60.107 -42.105 -53.455  0.00  0.00    +0.000 A 
ATOM     32  C   UNL     1     -59.326 -41.925 -54.585  0.00  0.00    +0.000 A 
ENDROOT
BRANCH   5  33
ATOM     33  N   UNL     1     -63.865 -48.105 -52.947  0.00  0.00    +0.000 N 
ATOM     34  C   UNL     1     -64.172 -49.306 -53.693  0.00  0.00    +0.000 C 
ATOM     35  H   UNL     1     -64.039 -48.150 -51.941  0.00  0.00    +0.000 HD
ENDBRANCH   5  33
BRANCH   3  36
ATOM     36  O   UNL     1     -62.578 -45.463 -52.474  0.00  0.00    +0.000 OA
ATOM     37  C   UNL     1     -62.835 -45.466 -51.095  0.00  0.00    +0.000 C 
ENDBRANCH   3  36
TORSDOF 2
ENDMDL
MODEL 5
REMARK VINA RESULT:      -6.3     26.891     31.271
REMARK  Name = Staurosporine.pdbqt.pdb
REMARK  2 active torsions:
REMARK  status: ('A' for Active; 'I' for Inactive)
REMARK    1  A    between atoms: C_3  and  O_11
REMARK    2  A    between atoms: C_5  and  N_8
REMARK                            x       y       z     vdW  Elec       q    Type
REMARK                         _______ _______ _______ _____ _____    ______ ____
ROOT
ATOM      1  O   UNL     1     -56.312 -58.818 -60.708  0.00  0.00    +0.000 OA
ATOM      2  C   UNL     1     -57.634 -59.278 -61.102  0.00  0.00    +0.000 C 
ATOM      3  C   UNL     1     -58.790 -58.331 -60.724  0.00  0.00    +0.000 C 
ATOM      4  C   UNL     1     -56.055 -57.507 -61.075  0.00  0.00    +0.000 C 
ATOM      5  C   UNL     1     -58.494 -56.919 -60.500  0.00  0.00    +0.000 C 
ATOM      6  C   UNL     1     -57.119 -56.673 -60.672  0.00  0.00    +0.000 C 
ATOM      7  C   UNL     1     -57.823 -60.586 -60.263  0.00  0.00    +0.000 C 
ATOM      8  N   UNL     1     -57.586 -59.561 -62.555  0.00  0.00    +0.000 N 
ATOM      9  C   UNL     1     -56.772 -59.081 -63.550  0.00  0.00    +0.000 A 
ATOM     10  C   UNL     1     -55.816 -58.065 -63.460  0.00  0.00    +0.000 A 
ATOM     11  C   UNL     1     -56.923 -59.586 -64.849  0.00  0.00    +0.000 A 
ATOM     12  N   UNL     1     -55.552 -57.327 -62.346  0.00  0.00    +0.000 N 
ATOM     13  C   UNL     1     -55.210 -57.707 -64.673  0.00  0.00    +0.000 A 
ATOM     14  C   UNL     1     -54.743 -56.315 -62.901  0.00  0.00    +0.000 A 
ATOM     15  C   UNL     1     -54.491 -56.550 -64.302  0.00  0.00    +0.000 A 
ATOM     16  C   UNL     1     -54.180 -55.206 -62.247  0.00  0.00    +0.000 A 
ATOM     17  C   UNL     1     -53.679 -55.627 -64.991  0.00  0.00    +0.000 A 
ATOM     18  C   UNL     1     -53.130 -54.533 -64.325  0.00  0.00    +0.000 A 
ATOM     19  C   UNL     1     -53.380 -54.328 -62.976  0.00  0.00    +0.000 A 
ATOM     20  C   UNL     1     -55.347 -58.215 -65.980  0.00  0.00    +0.000 A 
ATOM     21  C   UNL     1     -56.299 -59.269 -66.063  0.00  0.00    +0.000 A 
ATOM     22  C   UNL     1     -54.801 -57.923 -67.285  0.00  0.00    +0.000 C 
ATOM     23  C   UNL     1     -56.366 -59.674 -67.493  0.00  0.00    +0.000 C 
ATOM     24  N   UNL     1     -55.480 -58.848 -68.091  0.00  0.00    +0.000 N 
ATOM     25  H   UNL     1     -55.295 -58.883 -69.083  0.00  0.00    +0.000 HD
ATOM     26  O   UNL     1     -53.977 -57.122 -67.701  0.00  0.00    +0.000 OA
ATOM     27  C   UNL     1     -57.985 -60.492 -64.698  0.00  0.00    +0.000 A 
ATOM     28  C   UNL     1     -58.390 -60.457 -63.313  0.00  0.00    +0.000 A 
ATOM     29  C   UNL     1     -58.685 -61.338 -65.583  0.00  0.00    +0.000 A 
ATOM     30  C   UNL     1     -59.458 -61.262 -62.881  0.00  0.00    +0.000 A 
ATOM     31  C   UNL     1     -60.119 -62.085 -63.793  0.00  0.00    +0.000 A 
ATOM     32  C   UNL     1     -59.739 -62.125 -65.124  0.00  0.00    +0.000 A 
ENDROOT
BRANCH   5  33
ATOM     33  N   UNL     1     -59.484 -55.910 -60.352  0.00  0.00    +0.000 N 
ATOM     34  C   UNL     1     -58.997 -54.552 -60.460  0.00  0.00    +0.000 C 
ATOM     35  H   UNL     1     -60.165 -56.080 -59.609  0.00  0.00    +0.000 HD
ENDBRANCH   5  33
BRANCH   3  36
ATOM     36  O   UNL     1     -60.045 -58.726 -61.137  0.00  0.00    +0.000 OA
ATOM     37  C   UNL     1     -60.866 -59.075 -60.055  0.00  0.00    +0.000 C 
ENDBRANCH   3  36
TORSDOF 2
ENDMDL
MODEL 6
REMARK VINA RESULT:      -6.3     46.312     50.695
REMARK  Name = Staurosporine.pdbqt.pdb
REMARK  2 active torsions:
REMARK  status: ('A' for Active; 'I' for Inactive)
REMARK    1  A    between atoms: C_3  and  O_11
REMARK    2  A    between atoms: C_5  and  N_8
REMARK                            x       y       z     vdW  Elec       q    Type
REMARK                         _______ _______ _______ _____ _____    ______ ____
ROOT
ATOM      1  O   UNL     1     -45.902 -63.146 -79.422  0.00  0.00    +0.000 OA
ATOM      2  C   UNL     1     -45.857 -63.155 -80.875  0.00  0.00    +0.000 C 
ATOM      3  C   UNL     1     -46.416 -64.432 -81.535  0.00  0.00    +0.000 C 
ATOM      4  C   UNL     1     -47.139 -63.500 -78.909  0.00  0.00    +0.000 C 
ATOM      5  C   UNL     1     -47.361 -65.253 -80.781  0.00  0.00    +0.000 C 
ATOM      6  C   UNL     1     -47.591 -64.693 -79.511  0.00  0.00    +0.000 C 
ATOM      7  C   UNL     1     -44.323 -63.117 -81.186  0.00  0.00    +0.000 C 
ATOM      8  N   UNL     1     -46.542 -61.929 -81.345  0.00  0.00    +0.000 N 
ATOM      9  C   UNL     1     -47.497 -61.138 -80.757  0.00  0.00    +0.000 A 
ATOM     10  C   UNL     1     -48.184 -61.369 -79.561  0.00  0.00    +0.000 A 
ATOM     11  C   UNL     1     -47.923 -59.983 -81.427  0.00  0.00    +0.000 A 
ATOM     12  N   UNL     1     -48.050 -62.472 -78.774  0.00  0.00    +0.000 N 
ATOM     13  C   UNL     1     -49.191 -60.439 -79.263  0.00  0.00    +0.000 A 
ATOM     14  C   UNL     1     -49.144 -62.296 -77.904  0.00  0.00    +0.000 A 
ATOM     15  C   UNL     1     -49.824 -61.049 -78.159  0.00  0.00    +0.000 A 
ATOM     16  C   UNL     1     -49.570 -63.148 -76.872  0.00  0.00    +0.000 A 
ATOM     17  C   UNL     1     -50.933 -60.725 -77.351  0.00  0.00    +0.000 A 
ATOM     18  C   UNL     1     -51.341 -61.584 -76.332  0.00  0.00    +0.000 A 
ATOM     19  C   UNL     1     -50.670 -62.775 -76.101  0.00  0.00    +0.000 A 
ATOM     20  C   UNL     1     -49.619 -59.270 -79.923  0.00  0.00    +0.000 A 
ATOM     21  C   UNL     1     -48.898 -59.022 -81.124  0.00  0.00    +0.000 A 
ATOM     22  C   UNL     1     -50.635 -58.263 -79.727  0.00  0.00    +0.000 C 
ATOM     23  C   UNL     1     -49.480 -57.793 -81.728  0.00  0.00    +0.000 C 
ATOM     24  N   UNL     1     -50.452 -57.451 -80.855  0.00  0.00    +0.000 N 
ATOM     25  H   UNL     1     -51.036 -56.638 -80.990  0.00  0.00    +0.000 HD
ATOM     26  O   UNL     1     -51.477 -58.063 -78.864  0.00  0.00    +0.000 OA
ATOM     27  C   UNL     1     -47.177 -60.032 -82.615  0.00  0.00    +0.000 A 
ATOM     28  C   UNL     1     -46.359 -61.220 -82.564  0.00  0.00    +0.000 A 
ATOM     29  C   UNL     1     -47.107 -59.215 -83.763  0.00  0.00    +0.000 A 
ATOM     30  C   UNL     1     -45.515 -61.530 -83.645  0.00  0.00    +0.000 A 
ATOM     31  C   UNL     1     -45.478 -60.689 -84.757  0.00  0.00    +0.000 A 
ATOM     32  C   UNL     1     -46.259 -59.548 -84.817  0.00  0.00    +0.000 A 
ENDROOT
BRANCH   5  33
ATOM     33  N   UNL     1     -48.104 -66.328 -81.339  0.00  0.00    +0.000 N 
ATOM     34  C   UNL     1     -47.518 -67.638 -81.156  0.00  0.00    +0.000 C 
ATOM     35  H   UNL     1     -48.503 -66.144 -82.262  0.00  0.00    +0.000 HD
ENDBRANCH   5  33
BRANCH   3  36
ATOM     36  O   UNL     1     -46.430 -64.436 -82.913  0.00  0.00    +0.000 OA
ATOM     37  C   UNL     1     -45.544 -65.385 -83.442  0.00  0.00    +0.000 C 
ENDBRANCH   3  36
TORSDOF 2
ENDMDL
MODEL 7
REMARK VINA RESULT:      -6.2     30.960     35.076
REMARK  Name = Staurosporine.pdbqt.pdb
REMARK  2 active torsions:
REMARK  status: ('A' for Active; 'I' for Inactive)
REMARK    1  A    between atoms: C_3  and  O_11
REMARK    2  A    between atoms: C_5  and  N_8
REMARK                            x       y       z     vdW  Elec       q    Type
REMARK                         _______ _______ _______ _____ _____    ______ ____
ROOT
ATOM      1  O   UNL     1     -70.666 -61.168 -72.290  0.00  0.00    +0.000 OA
ATOM      2  C   UNL     1     -69.389 -60.779 -72.867  0.00  0.00    +0.000 C 
ATOM      3  C   UNL     1     -69.386 -59.406 -73.569  0.00  0.00    +0.000 C 
ATOM      4  C   UNL     1     -71.237 -60.180 -71.506  0.00  0.00    +0.000 C 
ATOM      5  C   UNL     1     -70.400 -58.424 -73.192  0.00  0.00    +0.000 C 
ATOM      6  C   UNL     1     -71.250 -58.953 -72.204  0.00  0.00    +0.000 C 
ATOM      7  C   UNL     1     -69.155 -61.858 -73.978  0.00  0.00    +0.000 C 
ATOM      8  N   UNL     1     -68.374 -60.868 -71.794  0.00  0.00    +0.000 N 
ATOM      9  C   UNL     1     -68.485 -60.798 -70.428  0.00  0.00    +0.000 A 
ATOM     10  C   UNL     1     -69.623 -60.490 -69.675  0.00  0.00    +0.000 A 
ATOM     11  C   UNL     1     -67.336 -60.980 -69.646  0.00  0.00    +0.000 A 
ATOM     12  N   UNL     1     -70.840 -60.155 -70.185  0.00  0.00    +0.000 N 
ATOM     13  C   UNL     1     -69.411 -60.382 -68.293  0.00  0.00    +0.000 A 
ATOM     14  C   UNL     1     -71.484 -59.694 -69.020  0.00  0.00    +0.000 A 
ATOM     15  C   UNL     1     -70.648 -59.861 -67.855  0.00  0.00    +0.000 A 
ATOM     16  C   UNL     1     -72.778 -59.161 -68.904  0.00  0.00    +0.000 A 
ATOM     17  C   UNL     1     -71.167 -59.460 -66.608  0.00  0.00    +0.000 A 
ATOM     18  C   UNL     1     -72.453 -58.932 -66.513  0.00  0.00    +0.000 A 
ATOM     19  C   UNL     1     -73.242 -58.785 -67.644  0.00  0.00    +0.000 A 
ATOM     20  C   UNL     1     -68.264 -60.574 -67.497  0.00  0.00    +0.000 A 
ATOM     21  C   UNL     1     -67.115 -60.916 -68.264  0.00  0.00    +0.000 A 
ATOM     22  C   UNL     1     -67.926 -60.476 -66.096  0.00  0.00    +0.000 C 
ATOM     23  C   UNL     1     -65.984 -61.045 -67.306  0.00  0.00    +0.000 C 
ATOM     24  N   UNL     1     -66.557 -60.775 -66.112  0.00  0.00    +0.000 N 
ATOM     25  H   UNL     1     -66.034 -60.788 -65.248  0.00  0.00    +0.000 HD
ATOM     26  O   UNL     1     -68.562 -60.215 -65.086  0.00  0.00    +0.000 OA
ATOM     27  C   UNL     1     -66.339 -61.167 -70.617  0.00  0.00    +0.000 A 
ATOM     28  C   UNL     1     -66.973 -61.080 -71.911  0.00  0.00    +0.000 A 
ATOM     29  C   UNL     1     -64.946 -61.379 -70.562  0.00  0.00    +0.000 A 
ATOM     30  C   UNL     1     -66.196 -61.213 -73.075  0.00  0.00    +0.000 A 
ATOM     31  C   UNL     1     -64.821 -61.425 -72.970  0.00  0.00    +0.000 A 
ATOM     32  C   UNL     1     -64.203 -61.509 -71.734  0.00  0.00    +0.000 A 
ENDROOT
BRANCH   5  33
ATOM     33  N   UNL     1     -70.386 -57.064 -73.604  0.00  0.00    +0.000 N 
ATOM     34  C   UNL     1     -71.689 -56.465 -73.791  0.00  0.00    +0.000 C 
ATOM     35  H   UNL     1     -69.685 -56.835 -74.313  0.00  0.00    +0.000 HD
ENDBRANCH   5  33
BRANCH   3  36
ATOM     36  O   UNL     1     -68.171 -58.997 -74.077  0.00  0.00    +0.000 OA
ATOM     37  C   UNL     1     -68.156 -59.019 -75.479  0.00  0.00    +0.000 C 
ENDBRANCH   3  36
TORSDOF 2
ENDMDL
MODEL 8
REMARK VINA RESULT:      -6.1     19.448     23.303
REMARK  Name = Staurosporine.pdbqt.pdb
REMARK  2 active torsions:
REMARK  status: ('A' for Active; 'I' for Inactive)
REMARK    1  A    between atoms: C_3  and  O_11
REMARK    2  A    between atoms: C_5  and  N_8
REMARK                            x       y       z     vdW  Elec       q    Type
REMARK                         _______ _______ _______ _____ _____    ______ ____
ROOT
ATOM      1  O   UNL     1     -63.955 -43.145 -55.902  0.00  0.00    +0.000 OA
ATOM      2  C   UNL     1     -63.924 -43.822 -57.188  0.00  0.00    +0.000 C 
ATOM      3  C   UNL     1     -62.524 -43.951 -57.822  0.00  0.00    +0.000 C 
ATOM      4  C   UNL     1     -63.018 -43.631 -55.004  0.00  0.00    +0.000 C 
ATOM      5  C   UNL     1     -61.353 -43.883 -56.951  0.00  0.00    +0.000 C 
ATOM      6  C   UNL     1     -61.747 -43.691 -55.614  0.00  0.00    +0.000 C 
ATOM      7  C   UNL     1     -64.757 -42.871 -58.113  0.00  0.00    +0.000 C 
ATOM      8  N   UNL     1     -64.588 -45.134 -57.012  0.00  0.00    +0.000 N 
ATOM      9  C   UNL     1     -64.774 -45.919 -55.902  0.00  0.00    +0.000 A 
ATOM     10  C   UNL     1     -64.253 -45.724 -54.618  0.00  0.00    +0.000 A 
ATOM     11  C   UNL     1     -65.507 -47.106 -56.028  0.00  0.00    +0.000 A 
ATOM     12  N   UNL     1     -63.414 -44.717 -54.251  0.00  0.00    +0.000 N 
ATOM     13  C   UNL     1     -64.521 -46.755 -53.705  0.00  0.00    +0.000 A 
ATOM     14  C   UNL     1     -63.014 -45.173 -52.979  0.00  0.00    +0.000 A 
ATOM     15  C   UNL     1     -63.705 -46.386 -52.613  0.00  0.00    +0.000 A 
ATOM     16  C   UNL     1     -62.099 -44.575 -52.098  0.00  0.00    +0.000 A 
ATOM     17  C   UNL     1     -63.421 -46.954 -51.355  0.00  0.00    +0.000 A 
ATOM     18  C   UNL     1     -62.509 -46.345 -50.494  0.00  0.00    +0.000 A 
ATOM     19  C   UNL     1     -61.860 -45.177 -50.863  0.00  0.00    +0.000 A 
ATOM     20  C   UNL     1     -65.266 -47.945 -53.819  0.00  0.00    +0.000 A 
ATOM     21  C   UNL     1     -65.818 -48.125 -55.118  0.00  0.00    +0.000 A 
ATOM     22  C   UNL     1     -65.591 -49.069 -52.971  0.00  0.00    +0.000 C 
ATOM     23  C   UNL     1     -66.534 -49.429 -55.102  0.00  0.00    +0.000 C 
ATOM     24  N   UNL     1     -66.339 -49.874 -53.841  0.00  0.00    +0.000 N 
ATOM     25  H   UNL     1     -66.717 -50.752 -53.515  0.00  0.00    +0.000 HD
ATOM     26  O   UNL     1     -65.343 -49.355 -51.809  0.00  0.00    +0.000 OA
ATOM     27  C   UNL     1     -65.821 -47.121 -57.397  0.00  0.00    +0.000 A 
ATOM     28  C   UNL     1     -65.247 -45.935 -57.986  0.00  0.00    +0.000 A 
ATOM     29  C   UNL     1     -66.515 -48.020 -58.234  0.00  0.00    +0.000 A 
ATOM     30  C   UNL     1     -65.394 -45.702 -59.364  0.00  0.00    +0.000 A 
ATOM     31  C   UNL     1     -66.092 -46.619 -60.151  0.00  0.00    +0.000 A 
ATOM     32  C   UNL     1     -66.646 -47.761 -59.596  0.00  0.00    +0.000 A 
ENDROOT
BRANCH   5  33
ATOM     33  N   UNL     1     -60.030 -44.190 -57.369  0.00  0.00    +0.000 N 
ATOM     34  C   UNL     1     -59.222 -43.048 -57.737  0.00  0.00    +0.000 C 
ATOM     35  H   UNL     1     -59.949 -45.008 -57.977  0.00  0.00    +0.000 HD
ENDBRANCH   5  33
BRANCH   3  36
ATOM     36  O   UNL     1     -62.469 -44.636 -59.016  0.00  0.00    +0.000 OA
ATOM     37  C   UNL     1     -62.091 -43.803 -60.080  0.00  0.00    +0.000 C 
ENDBRANCH   3  36
TORSDOF 2
ENDMDL
MODEL 9
REMARK VINA RESULT:      -6.1     39.647     42.784
REMARK  Name = Staurosporine.pdbqt.pdb
REMARK  2 active torsions:
REMARK  status: ('A' for Active; 'I' for Inactive)
REMARK    1  A    between atoms: C_3  and  O_11
REMARK    2  A    between atoms: C_5  and  N_8
REMARK                            x       y       z     vdW  Elec       q    Type
REMARK                         _______ _______ _______ _____ _____    ______ ____
ROOT
ATOM      1  O   UNL     1     -67.270 -57.311 -80.660  0.00  0.00    +0.000 OA
ATOM      2  C   UNL     1     -65.823 -57.260 -80.524  0.00  0.00    +0.000 C 
ATOM      3  C   UNL     1     -65.248 -55.863 -80.217  0.00  0.00    +0.000 C 
ATOM      4  C   UNL     1     -67.941 -56.688 -79.621  0.00  0.00    +0.000 C 
ATOM      5  C   UNL     1     -66.122 -54.866 -79.604  0.00  0.00    +0.000 C 
ATOM      6  C   UNL     1     -67.409 -55.399 -79.404  0.00  0.00    +0.000 C 
ATOM      7  C   UNL     1     -65.315 -57.658 -81.951  0.00  0.00    +0.000 C 
ATOM      8  N   UNL     1     -65.440 -58.265 -79.507  0.00  0.00    +0.000 N 
ATOM      9  C   UNL     1     -66.142 -58.822 -78.468  0.00  0.00    +0.000 A 
ATOM     10  C   UNL     1     -67.419 -58.476 -78.012  0.00  0.00    +0.000 A 
ATOM     11  C   UNL     1     -65.528 -59.814 -77.691  0.00  0.00    +0.000 A 
ATOM     12  N   UNL     1     -68.187 -57.468 -78.510  0.00  0.00    +0.000 N 
ATOM     13  C   UNL     1     -67.840 -59.145 -76.854  0.00  0.00    +0.000 A 
ATOM     14  C   UNL     1     -69.191 -57.406 -77.524  0.00  0.00    +0.000 A 
ATOM     15  C   UNL     1     -69.021 -58.441 -76.532  0.00  0.00    +0.000 A 
ATOM     16  C   UNL     1     -70.274 -56.514 -77.451  0.00  0.00    +0.000 A 
ATOM     17  C   UNL     1     -69.964 -58.516 -75.488  0.00  0.00    +0.000 A 
ATOM     18  C   UNL     1     -71.031 -57.621 -75.432  0.00  0.00    +0.000 A 
ATOM     19  C   UNL     1     -71.180 -56.637 -76.398  0.00  0.00    +0.000 A 
ATOM     20  C   UNL     1     -67.235 -60.150 -76.074  0.00  0.00    +0.000 A 
ATOM     21  C   UNL     1     -65.949 -60.521 -76.557  0.00  0.00    +0.000 A 
ATOM     22  C   UNL     1     -67.557 -60.888 -74.874  0.00  0.00    +0.000 C 
ATOM     23  C   UNL     1     -65.421 -61.549 -75.621  0.00  0.00    +0.000 C 
ATOM     24  N   UNL     1     -66.410 -61.677 -74.710  0.00  0.00    +0.000 N 
ATOM     25  H   UNL     1     -66.348 -62.319 -73.933  0.00  0.00    +0.000 HD
ATOM     26  O   UNL     1     -68.521 -60.909 -74.123  0.00  0.00    +0.000 OA
ATOM     27  C   UNL     1     -64.253 -59.904 -78.273  0.00  0.00    +0.000 A 
ATOM     28  C   UNL     1     -64.204 -58.953 -79.357  0.00  0.00    +0.000 A 
ATOM     29  C   UNL     1     -63.102 -60.671 -77.997  0.00  0.00    +0.000 A 
ATOM     30  C   UNL     1     -63.024 -58.817 -80.109  0.00  0.00    +0.000 A 
ATOM     31  C   UNL     1     -61.912 -59.600 -79.801  0.00  0.00    +0.000 A 
ATOM     32  C   UNL     1     -61.948 -60.515 -78.762  0.00  0.00    +0.000 A 
ENDROOT
BRANCH   5  33
ATOM     33  N   UNL     1     -65.671 -53.622 -79.083  0.00  0.00    +0.000 N 
ATOM     34  C   UNL     1     -65.929 -52.475 -79.926  0.00  0.00    +0.000 C 
ATOM     35  H   UNL     1     -64.752 -53.649 -78.637  0.00  0.00    +0.000 HD
ENDBRANCH   5  33
BRANCH   3  36
ATOM     36  O   UNL     1     -63.883 -55.805 -80.033  0.00  0.00    +0.000 OA
ATOM     37  C   UNL     1     -63.255 -55.034 -81.021  0.00  0.00    +0.000 C 
ENDBRANCH   3  36
TORSDOF 2
ENDMDL
