MODEL 1
REMARK VINA RESULT:      -6.2      0.000      0.000
REMARK  Name = Testosterone.pdbqt.pdb
REMARK  1 active torsions:
REMARK  status: ('A' for Active; 'I' for Inactive)
REMARK    1  A    between atoms: C_9  and  O_21
REMARK                            x       y       z     vdW  Elec       q    Type
REMARK                         _______ _______ _______ _____ _____    ______ ____
ROOT
ATOM      1  O   UNL     1     -60.098 -44.971 -61.782  0.00  0.00    +0.000 OA
ATOM      2  C   UNL     1     -67.540 -44.953 -59.986  0.00  0.00    +0.000 C 
ATOM      3  C   UNL     1     -68.378 -46.310 -59.828  0.00  0.00    +0.000 C 
ATOM      4  C   UNL     1     -66.084 -44.912 -59.744  0.00  0.00    +0.000 C 
ATOM      5  C   UNL     1     -65.170 -46.101 -59.641  0.00  0.00    +0.000 C 
ATOM      6  C   UNL     1     -63.667 -46.007 -59.296  0.00  0.00    +0.000 C 
ATOM      7  C   UNL     1     -67.398 -47.395 -59.899  0.00  0.00    +0.000 C 
ATOM      8  C   UNL     1     -65.895 -47.316 -59.787  0.00  0.00    +0.000 C 
ATOM      9  C   UNL     1     -69.327 -46.297 -61.051  0.00  0.00    +0.000 C 
ATOM     10  C   UNL     1     -68.089 -44.263 -61.116  0.00  0.00    +0.000 C 
ATOM     11  C   UNL     1     -65.381 -43.685 -59.736  0.00  0.00    +0.000 C 
ATOM     12  C   UNL     1     -69.140 -45.102 -61.799  0.00  0.00    +0.000 C 
ATOM     13  C   UNL     1     -62.977 -44.523 -59.549  0.00  0.00    +0.000 C 
ATOM     14  C   UNL     1     -63.903 -43.454 -59.645  0.00  0.00    +0.000 C 
ATOM     15  C   UNL     1     -69.185 -46.292 -58.506  0.00  0.00    +0.000 C 
ATOM     16  C   UNL     1     -62.868 -46.903 -60.196  0.00  0.00    +0.000 C 
ATOM     17  C   UNL     1     -63.450 -46.357 -57.798  0.00  0.00    +0.000 C 
ATOM     18  C   UNL     1     -61.618 -46.662 -61.074  0.00  0.00    +0.000 C 
ATOM     19  C   UNL     1     -61.896 -44.471 -60.298  0.00  0.00    +0.000 C 
ATOM     20  C   UNL     1     -61.060 -45.325 -61.128  0.00  0.00    +0.000 C 
ENDROOT
BRANCH   9  21
ATOM     21  O   UNL     1     -70.561 -46.921 -61.033  0.00  0.00    +0.000 OA
ATOM     22  H   UNL     1     -70.697 -47.414 -60.201  0.00  0.00    +0.000 HD
ENDBRANCH   9  21
TORSDOF 1
ENDMDL
MODEL 2
REMARK VINA RESULT:      -6.0     26.285     28.792
REMARK  Name = Testosterone.pdbqt.pdb
REMARK  1 active torsions:
REMARK  status: ('A' for Active; 'I' for Inactive)
REMARK    1  A    between atoms: C_9  and  O_21
REMARK                            x       y       z     vdW  Elec       q    Type
REMARK                         _______ _______ _______ _____ _____    ______ ____
ROOT
ATOM      1  O   UNL     1     -51.859 -65.873 -74.237  0.00  0.00    +0.000 OA
ATOM      2  C   UNL     1     -48.940 -61.004 -79.372  0.00  0.00    +0.000 C 
ATOM      3  C   UNL     1     -49.792 -59.781 -79.962  0.00  0.00    +0.000 C 
ATOM      4  C   UNL     1     -49.216 -61.562 -78.033  0.00  0.00    +0.000 C 
ATOM      5  C   UNL     1     -50.449 -61.317 -77.208  0.00  0.00    +0.000 C 
ATOM      6  C   UNL     1     -50.647 -61.853 -75.774  0.00  0.00    +0.000 C 
ATOM      7  C   UNL     1     -51.030 -59.744 -79.182  0.00  0.00    +0.000 C 
ATOM      8  C   UNL     1     -51.343 -60.436 -77.878  0.00  0.00    +0.000 C 
ATOM      9  C   UNL     1     -50.040 -60.187 -81.435  0.00  0.00    +0.000 C 
ATOM     10  C   UNL     1     -48.683 -61.889 -80.469  0.00  0.00    +0.000 C 
ATOM     11  C   UNL     1     -48.364 -62.535 -77.460  0.00  0.00    +0.000 C 
ATOM     12  C   UNL     1     -49.397 -61.424 -81.714  0.00  0.00    +0.000 C 
ATOM     13  C   UNL     1     -49.686 -63.137 -75.361  0.00  0.00    +0.000 C 
ATOM     14  C   UNL     1     -48.550 -63.308 -76.190  0.00  0.00    +0.000 C 
ATOM     15  C   UNL     1     -48.973 -58.468 -79.884  0.00  0.00    +0.000 C 
ATOM     16  C   UNL     1     -52.032 -62.409 -75.612  0.00  0.00    +0.000 C 
ATOM     17  C   UNL     1     -50.359 -60.723 -74.747  0.00  0.00    +0.000 C 
ATOM     18  C   UNL     1     -52.563 -63.759 -75.077  0.00  0.00    +0.000 C 
ATOM     19  C   UNL     1     -50.275 -64.216 -74.890  0.00  0.00    +0.000 C 
ATOM     20  C   UNL     1     -51.604 -64.762 -74.659  0.00  0.00    +0.000 C 
ENDROOT
BRANCH   9  21
ATOM     21  O   UNL     1     -50.213 -59.251 -82.438  0.00  0.00    +0.000 OA
ATOM     22  H   UNL     1     -50.398 -58.365 -82.069  0.00  0.00    +0.000 HD
ENDBRANCH   9  21
TORSDOF 1
ENDMDL
MODEL 3
REMARK VINA RESULT:      -5.9     42.852     45.043
REMARK  Name = Testosterone.pdbqt.pdb
REMARK  1 active torsions:
REMARK  status: ('A' for Active; 'I' for Inactive)
REMARK    1  A    between atoms: C_9  and  O_21
REMARK                            x       y       z     vdW  Elec       q    Type
REMARK                         _______ _______ _______ _____ _____    ______ ____
ROOT
ATOM      1  O   UNL     1     -63.164 -61.513 -16.822  0.00  0.00    +0.000 OA
ATOM      2  C   UNL     1     -63.943 -53.913 -17.320  0.00  0.00    +0.000 C 
ATOM      3  C   UNL     1     -65.181 -53.142 -16.656  0.00  0.00    +0.000 C 
ATOM      4  C   UNL     1     -63.451 -55.196 -16.777  0.00  0.00    +0.000 C 
ATOM      5  C   UNL     1     -64.177 -56.080 -15.801  0.00  0.00    +0.000 C 
ATOM      6  C   UNL     1     -63.578 -57.369 -15.195  0.00  0.00    +0.000 C 
ATOM      7  C   UNL     1     -65.892 -54.142 -15.858  0.00  0.00    +0.000 C 
ATOM      8  C   UNL     1     -65.425 -55.511 -15.427  0.00  0.00    +0.000 C 
ATOM      9  C   UNL     1     -66.009 -52.666 -17.873  0.00  0.00    +0.000 C 
ATOM     10  C   UNL     1     -64.071 -53.747 -18.737  0.00  0.00    +0.000 C 
ATOM     11  C   UNL     1     -62.268 -55.791 -17.272  0.00  0.00    +0.000 C 
ATOM     12  C   UNL     1     -65.356 -53.036 -19.081  0.00  0.00    +0.000 C 
ATOM     13  C   UNL     1     -62.317 -58.027 -16.043  0.00  0.00    +0.000 C 
ATOM     14  C   UNL     1     -61.691 -57.136 -16.949  0.00  0.00    +0.000 C 
ATOM     15  C   UNL     1     -64.679 -51.933 -15.827  0.00  0.00    +0.000 C 
ATOM     16  C   UNL     1     -64.596 -58.471 -15.204  0.00  0.00    +0.000 C 
ATOM     17  C   UNL     1     -63.057 -57.080 -13.760  0.00  0.00    +0.000 C 
ATOM     18  C   UNL     1     -64.556 -59.930 -15.712  0.00  0.00    +0.000 C 
ATOM     19  C   UNL     1     -62.406 -59.295 -16.387  0.00  0.00    +0.000 C 
ATOM     20  C   UNL     1     -63.346 -60.405 -16.354  0.00  0.00    +0.000 C 
ENDROOT
BRANCH   9  21
ATOM     21  O   UNL     1     -66.801 -51.533 -17.829  0.00  0.00    +0.000 OA
ATOM     22  H   UNL     1     -67.405 -51.492 -18.595  0.00  0.00    +0.000 HD
ENDBRANCH   9  21
TORSDOF 1
ENDMDL
MODEL 4
REMARK VINA RESULT:      -5.9     27.841     30.089
REMARK  Name = Testosterone.pdbqt.pdb
REMARK  1 active torsions:
REMARK  status: ('A' for Active; 'I' for Inactive)
REMARK    1  A    between atoms: C_9  and  O_21
REMARK                            x       y       z     vdW  Elec       q    Type
REMARK                         _______ _______ _______ _____ _____    ______ ____
ROOT
ATOM      1  O   UNL     1     -71.871 -51.414 -30.508  0.00  0.00    +0.000 OA
ATOM      2  C   UNL     1     -69.667 -57.474 -34.636  0.00  0.00    +0.000 C 
ATOM      3  C   UNL     1     -68.474 -58.434 -34.164  0.00  0.00    +0.000 C 
ATOM      4  C   UNL     1     -70.479 -56.716 -33.663  0.00  0.00    +0.000 C 
ATOM      5  C   UNL     1     -70.138 -56.480 -32.218  0.00  0.00    +0.000 C 
ATOM      6  C   UNL     1     -71.067 -55.755 -31.219  0.00  0.00    +0.000 C 
ATOM      7  C   UNL     1     -68.129 -58.004 -32.807  0.00  0.00    +0.000 C 
ATOM      8  C   UNL     1     -68.911 -57.112 -31.874  0.00  0.00    +0.000 C 
ATOM      9  C   UNL     1     -67.343 -58.135 -35.178  0.00  0.00    +0.000 C 
ATOM     10  C   UNL     1     -69.226 -56.834 -35.840  0.00  0.00    +0.000 C 
ATOM     11  C   UNL     1     -71.623 -55.994 -34.075  0.00  0.00    +0.000 C 
ATOM     12  C   UNL     1     -67.792 -57.192 -36.143  0.00  0.00    +0.000 C 
ATOM     13  C   UNL     1     -72.225 -54.791 -31.906  0.00  0.00    +0.000 C 
ATOM     14  C   UNL     1     -72.484 -55.067 -33.271  0.00  0.00    +0.000 C 
ATOM     15  C   UNL     1     -68.911 -59.917 -34.250  0.00  0.00    +0.000 C 
ATOM     16  C   UNL     1     -70.281 -54.787 -30.384  0.00  0.00    +0.000 C 
ATOM     17  C   UNL     1     -71.810 -56.800 -30.342  0.00  0.00    +0.000 C 
ATOM     18  C   UNL     1     -70.476 -53.290 -30.052  0.00  0.00    +0.000 C 
ATOM     19  C   UNL     1     -72.294 -53.538 -31.506  0.00  0.00    +0.000 C 
ATOM     20  C   UNL     1     -71.593 -52.589 -30.653  0.00  0.00    +0.000 C 
ENDROOT
BRANCH   9  21
ATOM     21  O   UNL     1     -66.389 -59.076 -35.516  0.00  0.00    +0.000 OA
ATOM     22  H   UNL     1     -66.725 -59.698 -36.191  0.00  0.00    +0.000 HD
ENDBRANCH   9  21
TORSDOF 1
ENDMDL
MODEL 5
REMARK VINA RESULT:      -5.7     12.351     14.673
REMARK  Name = Testosterone.pdbqt.pdb
REMARK  1 active torsions:
REMARK  status: ('A' for Active; 'I' for Inactive)
REMARK    1  A    between atoms: C_9  and  O_21
REMARK                            x       y       z     vdW  Elec       q    Type
REMARK                         _______ _______ _______ _____ _____    ______ ____
ROOT
ATOM      1  O   UNL     1     -56.146 -58.799 -66.762  0.00  0.00    +0.000 OA
ATOM      2  C   UNL     1     -58.722 -56.671 -59.873  0.00  0.00    +0.000 C 
ATOM      3  C   UNL     1     -60.033 -57.321 -59.220  0.00  0.00    +0.000 C 
ATOM      4  C   UNL     1     -57.893 -57.415 -60.844  0.00  0.00    +0.000 C 
ATOM      5  C   UNL     1     -58.291 -58.670 -61.569  0.00  0.00    +0.000 C 
ATOM      6  C   UNL     1     -57.351 -59.459 -62.507  0.00  0.00    +0.000 C 
ATOM      7  C   UNL     1     -60.408 -58.430 -60.098  0.00  0.00    +0.000 C 
ATOM      8  C   UNL     1     -59.594 -59.090 -61.184  0.00  0.00    +0.000 C 
ATOM      9  C   UNL     1     -61.066 -56.169 -59.256  0.00  0.00    +0.000 C 
ATOM     10  C   UNL     1     -59.025 -55.291 -60.113  0.00  0.00    +0.000 C 
ATOM     11  C   UNL     1     -56.659 -56.895 -61.298  0.00  0.00    +0.000 C 
ATOM     12  C   UNL     1     -60.468 -54.995 -59.789  0.00  0.00    +0.000 C 
ATOM     13  C   UNL     1     -56.062 -58.603 -63.097  0.00  0.00    +0.000 C 
ATOM     14  C   UNL     1     -55.755 -57.428 -62.367  0.00  0.00    +0.000 C 
ATOM     15  C   UNL     1     -59.746 -57.757 -57.761  0.00  0.00    +0.000 C 
ATOM     16  C   UNL     1     -58.080 -59.865 -63.754  0.00  0.00    +0.000 C 
ATOM     17  C   UNL     1     -56.771 -60.689 -61.755  0.00  0.00    +0.000 C 
ATOM     18  C   UNL     1     -57.751 -59.711 -65.257  0.00  0.00    +0.000 C 
ATOM     19  C   UNL     1     -55.887 -58.582 -64.402  0.00  0.00    +0.000 C 
ATOM     20  C   UNL     1     -56.534 -59.018 -65.631  0.00  0.00    +0.000 C 
ENDROOT
BRANCH   9  21
ATOM     21  O   UNL     1     -62.092 -56.071 -58.333  0.00  0.00    +0.000 OA
ATOM     22  H   UNL     1     -61.749 -55.862 -57.442  0.00  0.00    +0.000 HD
ENDBRANCH   9  21
TORSDOF 1
ENDMDL
MODEL 6
REMARK VINA RESULT:      -5.7     26.936     28.799
REMARK  Name = Testosterone.pdbqt.pdb
REMARK  1 active torsions:
REMARK  status: ('A' for Active; 'I' for Inactive)
REMARK    1  A    between atoms: C_9  and  O_21
REMARK                            x       y       z     vdW  Elec       q    Type
REMARK                         _______ _______ _______ _____ _____    ______ ____
ROOT
ATOM      1  O   UNL     1     -50.495 -59.743 -82.870  0.00  0.00    +0.000 OA
ATOM      2  C   UNL     1     -50.771 -62.371 -75.684  0.00  0.00    +0.000 C 
ATOM      3  C   UNL     1     -49.952 -63.669 -75.224  0.00  0.00    +0.000 C 
ATOM      4  C   UNL     1     -50.312 -61.526 -76.805  0.00  0.00    +0.000 C 
ATOM      5  C   UNL     1     -49.271 -61.897 -77.825  0.00  0.00    +0.000 C 
ATOM      6  C   UNL     1     -48.762 -60.939 -78.926  0.00  0.00    +0.000 C 
ATOM      7  C   UNL     1     -49.092 -64.021 -76.355  0.00  0.00    +0.000 C 
ATOM      8  C   UNL     1     -48.743 -63.192 -77.567  0.00  0.00    +0.000 C 
ATOM      9  C   UNL     1     -51.055 -64.726 -74.975  0.00  0.00    +0.000 C 
ATOM     10  C   UNL     1     -52.160 -62.702 -75.571  0.00  0.00    +0.000 C 
ATOM     11  C   UNL     1     -50.953 -60.302 -77.106  0.00  0.00    +0.000 C 
ATOM     12  C   UNL     1     -52.337 -64.151 -75.192  0.00  0.00    +0.000 C 
ATOM     13  C   UNL     1     -49.765 -59.668 -79.273  0.00  0.00    +0.000 C 
ATOM     14  C   UNL     1     -50.724 -59.386 -78.269  0.00  0.00    +0.000 C 
ATOM     15  C   UNL     1     -49.168 -63.376 -73.920  0.00  0.00    +0.000 C 
ATOM     16  C   UNL     1     -48.669 -61.658 -80.240  0.00  0.00    +0.000 C 
ATOM     17  C   UNL     1     -47.395 -60.336 -78.503  0.00  0.00    +0.000 C 
ATOM     18  C   UNL     1     -49.203 -61.331 -81.653  0.00  0.00    +0.000 C 
ATOM     19  C   UNL     1     -50.117 -59.492 -80.530  0.00  0.00    +0.000 C 
ATOM     20  C   UNL     1     -49.991 -60.128 -81.832  0.00  0.00    +0.000 C 
ENDROOT
BRANCH   9  21
ATOM     21  O   UNL     1     -50.898 -65.754 -74.065  0.00  0.00    +0.000 OA
ATOM     22  H   UNL     1     -50.111 -65.615 -73.503  0.00  0.00    +0.000 HD
ENDBRANCH   9  21
TORSDOF 1
ENDMDL
MODEL 7
REMARK VINA RESULT:      -5.6     26.018     28.221
REMARK  Name = Testosterone.pdbqt.pdb
REMARK  1 active torsions:
REMARK  status: ('A' for Active; 'I' for Inactive)
REMARK    1  A    between atoms: C_9  and  O_21
REMARK                            x       y       z     vdW  Elec       q    Type
REMARK                         _______ _______ _______ _____ _____    ______ ____
ROOT
ATOM      1  O   UNL     1     -69.806 -47.870 -27.803  0.00  0.00    +0.000 OA
ATOM      2  C   UNL     1     -66.492 -48.402 -34.684  0.00  0.00    +0.000 C 
ATOM      3  C   UNL     1     -65.628 -47.204 -35.305  0.00  0.00    +0.000 C 
ATOM      4  C   UNL     1     -66.629 -48.581 -33.224  0.00  0.00    +0.000 C 
ATOM      5  C   UNL     1     -66.284 -47.563 -32.172  0.00  0.00    +0.000 C 
ATOM      6  C   UNL     1     -66.361 -47.834 -30.653  0.00  0.00    +0.000 C 
ATOM      7  C   UNL     1     -65.494 -46.213 -34.235  0.00  0.00    +0.000 C 
ATOM      8  C   UNL     1     -65.772 -46.374 -32.761  0.00  0.00    +0.000 C 
ATOM      9  C   UNL     1     -66.504 -46.691 -36.473  0.00  0.00    +0.000 C 
ATOM     10  C   UNL     1     -67.641 -48.557 -35.526  0.00  0.00    +0.000 C 
ATOM     11  C   UNL     1     -67.263 -49.724 -32.686  0.00  0.00    +0.000 C 
ATOM     12  C   UNL     1     -67.680 -47.482 -36.584  0.00  0.00    +0.000 C 
ATOM     13  C   UNL     1     -67.325 -49.105 -30.211  0.00  0.00    +0.000 C 
ATOM     14  C   UNL     1     -67.613 -50.015 -31.258  0.00  0.00    +0.000 C 
ATOM     15  C   UNL     1     -64.270 -47.735 -35.827  0.00  0.00    +0.000 C 
ATOM     16  C   UNL     1     -66.998 -46.672 -29.948  0.00  0.00    +0.000 C 
ATOM     17  C   UNL     1     -64.940 -48.130 -30.101  0.00  0.00    +0.000 C 
ATOM     18  C   UNL     1     -68.164 -46.571 -28.938  0.00  0.00    +0.000 C 
ATOM     19  C   UNL     1     -68.263 -48.879 -29.315  0.00  0.00    +0.000 C 
ATOM     20  C   UNL     1     -68.863 -47.785 -28.565  0.00  0.00    +0.000 C 
ENDROOT
BRANCH   9  21
ATOM     21  O   UNL     1     -65.959 -46.093 -37.595  0.00  0.00    +0.000 OA
ATOM     22  H   UNL     1     -65.142 -46.548 -37.879  0.00  0.00    +0.000 HD
ENDBRANCH   9  21
TORSDOF 1
ENDMDL
MODEL 8
REMARK VINA RESULT:      -5.6     27.874     30.141
REMARK  Name = Testosterone.pdbqt.pdb
REMARK  1 active torsions:
REMARK  status: ('A' for Active; 'I' for Inactive)
REMARK    1  A    between atoms: C_9  and  O_21
REMARK                            x       y       z     vdW  Elec       q    Type
REMARK                         _______ _______ _______ _____ _____    ______ ____
ROOT
ATOM      1  O   UNL     1     -65.745 -48.205 -36.145  0.00  0.00    +0.000 OA
ATOM      2  C   UNL     1     -64.772 -48.823 -28.576  0.00  0.00    +0.000 C 
ATOM      3  C   UNL     1     -63.945 -47.737 -27.736  0.00  0.00    +0.000 C 
ATOM      4  C   UNL     1     -65.461 -48.466 -29.833  0.00  0.00    +0.000 C 
ATOM      5  C   UNL     1     -65.244 -47.213 -30.636  0.00  0.00    +0.000 C 
ATOM      6  C   UNL     1     -66.057 -46.846 -31.897  0.00  0.00    +0.000 C 
ATOM      7  C   UNL     1     -63.663 -46.643 -28.666  0.00  0.00    +0.000 C 
ATOM      8  C   UNL     1     -64.282 -46.369 -30.015  0.00  0.00    +0.000 C 
ATOM      9  C   UNL     1     -62.663 -48.498 -27.320  0.00  0.00    +0.000 C 
ATOM     10  C   UNL     1     -64.034 -50.049 -28.498  0.00  0.00    +0.000 C 
ATOM     11  C   UNL     1     -66.311 -49.388 -30.486  0.00  0.00    +0.000 C 
ATOM     12  C   UNL     1     -62.723 -49.842 -27.781  0.00  0.00    +0.000 C 
ATOM     13  C   UNL     1     -66.823 -48.114 -32.637  0.00  0.00    +0.000 C 
ATOM     14  C   UNL     1     -66.981 -49.261 -31.820  0.00  0.00    +0.000 C 
ATOM     15  C   UNL     1     -64.751 -47.296 -26.489  0.00  0.00    +0.000 C 
ATOM     16  C   UNL     1     -65.146 -46.333 -32.974  0.00  0.00    +0.000 C 
ATOM     17  C   UNL     1     -67.153 -45.807 -31.530  0.00  0.00    +0.000 C 
ATOM     18  C   UNL     1     -64.970 -46.708 -34.463  0.00  0.00    +0.000 C 
ATOM     19  C   UNL     1     -66.600 -48.298 -33.922  0.00  0.00    +0.000 C 
ATOM     20  C   UNL     1     -65.778 -47.781 -35.006  0.00  0.00    +0.000 C 
ENDROOT
BRANCH   9  21
ATOM     21  O   UNL     1     -61.963 -48.187 -26.168  0.00  0.00    +0.000 OA
ATOM     22  H   UNL     1     -62.047 -47.240 -25.946  0.00  0.00    +0.000 HD
ENDBRANCH   9  21
TORSDOF 1
ENDMDL
MODEL 9
REMARK VINA RESULT:      -5.5     33.937     36.390
REMARK  Name = Testosterone.pdbqt.pdb
REMARK  1 active torsions:
REMARK  status: ('A' for Active; 'I' for Inactive)
REMARK    1  A    between atoms: C_9  and  O_21
REMARK                            x       y       z     vdW  Elec       q    Type
REMARK                         _______ _______ _______ _____ _____    ______ ____
ROOT
ATOM      1  O   UNL     1     -61.557 -55.477 -22.108  0.00  0.00    +0.000 OA
ATOM      2  C   UNL     1     -59.446 -59.965 -27.940  0.00  0.00    +0.000 C 
ATOM      3  C   UNL     1     -59.678 -59.538 -29.467  0.00  0.00    +0.000 C 
ATOM      4  C   UNL     1     -59.282 -58.959 -26.872  0.00  0.00    +0.000 C 
ATOM      5  C   UNL     1     -59.609 -57.494 -26.978  0.00  0.00    +0.000 C 
ATOM      6  C   UNL     1     -59.333 -56.466 -25.859  0.00  0.00    +0.000 C 
ATOM      7  C   UNL     1     -60.139 -58.149 -29.427  0.00  0.00    +0.000 C 
ATOM      8  C   UNL     1     -60.089 -57.172 -28.277  0.00  0.00    +0.000 C 
ATOM      9  C   UNL     1     -60.781 -60.508 -29.954  0.00  0.00    +0.000 C 
ATOM     10  C   UNL     1     -60.270 -61.115 -27.708  0.00  0.00    +0.000 C 
ATOM     11  C   UNL     1     -58.927 -59.341 -25.558  0.00  0.00    +0.000 C 
ATOM     12  C   UNL     1     -61.125 -61.415 -28.914  0.00  0.00    +0.000 C 
ATOM     13  C   UNL     1     -59.144 -57.107 -24.343  0.00  0.00    +0.000 C 
ATOM     14  C   UNL     1     -58.848 -58.492 -24.325  0.00  0.00    +0.000 C 
ATOM     15  C   UNL     1     -58.376 -59.732 -30.283  0.00  0.00    +0.000 C 
ATOM     16  C   UNL     1     -60.511 -55.552 -25.689  0.00  0.00    +0.000 C 
ATOM     17  C   UNL     1     -58.035 -55.676 -26.181  0.00  0.00    +0.000 C 
ATOM     18  C   UNL     1     -61.335 -55.124 -24.453  0.00  0.00    +0.000 C 
ATOM     19  C   UNL     1     -59.896 -56.624 -23.377  0.00  0.00    +0.000 C 
ATOM     20  C   UNL     1     -60.997 -55.696 -23.165  0.00  0.00    +0.000 C 
ENDROOT
BRANCH   9  21
ATOM     21  O   UNL     1     -60.893 -60.891 -31.278  0.00  0.00    +0.000 OA
ATOM     22  H   UNL     1     -60.538 -61.791 -31.419  0.00  0.00    +0.000 HD
ENDBRANCH   9  21
TORSDOF 1
ENDMDL
