MODEL 1
REMARK VINA RESULT:      -2.8      0.000      0.000
REMARK  Name = Tetrachloroethylene.pdbqt.pdb
REMARK  0 active torsions:
REMARK  status: ('A' for Active; 'I' for Inactive)
REMARK                            x       y       z     vdW  Elec       q    Type
REMARK                         _______ _______ _______ _____ _____    ______ ____
ROOT
ATOM      1 CL   UNL     1     -64.415 -47.409 -60.435  0.00  0.00    +0.000 Cl
ATOM      2 CL   UNL     1     -61.758 -46.662 -61.413  0.00  0.00    +0.000 Cl
ATOM      3 CL   UNL     1     -60.914 -45.770 -58.438  0.00  0.00    +0.000 Cl
ATOM      4 CL   UNL     1     -63.571 -46.516 -57.460  0.00  0.00    +0.000 Cl
ATOM      5  C   UNL     1     -62.840 -46.775 -60.058  0.00  0.00    +0.000 C 
ATOM      6  C   UNL     1     -62.488 -46.403 -58.815  0.00  0.00    +0.000 C 
ENDROOT
TORSDOF 0
ENDMDL
MODEL 2
REMARK VINA RESULT:      -2.8      0.048      2.740
REMARK  Name = Tetrachloroethylene.pdbqt.pdb
REMARK  0 active torsions:
REMARK  status: ('A' for Active; 'I' for Inactive)
REMARK                            x       y       z     vdW  Elec       q    Type
REMARK                         _______ _______ _______ _____ _____    ______ ____
ROOT
ATOM      1 CL   UNL     1     -63.561 -46.488 -57.438  0.00  0.00    +0.000 Cl
ATOM      2 CL   UNL     1     -60.909 -45.790 -58.464  0.00  0.00    +0.000 Cl
ATOM      3 CL   UNL     1     -61.806 -46.716 -61.412  0.00  0.00    +0.000 Cl
ATOM      4 CL   UNL     1     -64.458 -47.413 -60.387  0.00  0.00    +0.000 Cl
ATOM      5  C   UNL     1     -62.497 -46.408 -58.810  0.00  0.00    +0.000 C 
ATOM      6  C   UNL     1     -62.871 -46.795 -60.041  0.00  0.00    +0.000 C 
ENDROOT
TORSDOF 0
ENDMDL
MODEL 3
REMARK VINA RESULT:      -2.8      0.659      2.637
REMARK  Name = Tetrachloroethylene.pdbqt.pdb
REMARK  0 active torsions:
REMARK  status: ('A' for Active; 'I' for Inactive)
REMARK                            x       y       z     vdW  Elec       q    Type
REMARK                         _______ _______ _______ _____ _____    ______ ____
ROOT
ATOM      1 CL   UNL     1     -64.131 -46.349 -57.680  0.00  0.00    +0.000 Cl
ATOM      2 CL   UNL     1     -64.951 -47.285 -60.330  0.00  0.00    +0.000 Cl
ATOM      3 CL   UNL     1     -61.918 -47.002 -61.369  0.00  0.00    +0.000 Cl
ATOM      4 CL   UNL     1     -61.098 -46.066 -58.718  0.00  0.00    +0.000 Cl
ATOM      5  C   UNL     1     -63.658 -46.735 -59.308  0.00  0.00    +0.000 C 
ATOM      6  C   UNL     1     -62.391 -46.616 -59.741  0.00  0.00    +0.000 C 
ENDROOT
TORSDOF 0
ENDMDL
MODEL 4
REMARK VINA RESULT:      -2.7      0.676      2.600
REMARK  Name = Tetrachloroethylene.pdbqt.pdb
REMARK  0 active torsions:
REMARK  status: ('A' for Active; 'I' for Inactive)
REMARK                            x       y       z     vdW  Elec       q    Type
REMARK                         _______ _______ _______ _____ _____    ______ ____
ROOT
ATOM      1 CL   UNL     1     -61.135 -46.021 -58.601  0.00  0.00    +0.000 Cl
ATOM      2 CL   UNL     1     -61.908 -46.940 -61.271  0.00  0.00    +0.000 Cl
ATOM      3 CL   UNL     1     -64.939 -47.323 -60.262  0.00  0.00    +0.000 Cl
ATOM      4 CL   UNL     1     -64.166 -46.403 -57.592  0.00  0.00    +0.000 Cl
ATOM      5  C   UNL     1     -62.404 -46.592 -59.642  0.00  0.00    +0.000 C 
ATOM      6  C   UNL     1     -63.670 -46.752 -59.221  0.00  0.00    +0.000 C 
ENDROOT
TORSDOF 0
ENDMDL
MODEL 5
REMARK VINA RESULT:      -2.5      9.816     10.211
REMARK  Name = Tetrachloroethylene.pdbqt.pdb
REMARK  0 active torsions:
REMARK  status: ('A' for Active; 'I' for Inactive)
REMARK                            x       y       z     vdW  Elec       q    Type
REMARK                         _______ _______ _______ _____ _____    ______ ____
ROOT
ATOM      1 CL   UNL     1     -59.456 -54.020 -60.392  0.00  0.00    +0.000 Cl
ATOM      2 CL   UNL     1     -57.794 -56.423 -60.567  0.00  0.00    +0.000 Cl
ATOM      3 CL   UNL     1     -60.190 -58.172 -59.320  0.00  0.00    +0.000 Cl
ATOM      4 CL   UNL     1     -61.853 -55.768 -59.145  0.00  0.00    +0.000 Cl
ATOM      5  C   UNL     1     -59.323 -55.731 -60.117  0.00  0.00    +0.000 C 
ATOM      6  C   UNL     1     -60.324 -56.461 -59.596  0.00  0.00    +0.000 C 
ENDROOT
TORSDOF 0
ENDMDL
MODEL 6
REMARK VINA RESULT:      -2.5     27.598     29.059
REMARK  Name = Tetrachloroethylene.pdbqt.pdb
REMARK  0 active torsions:
REMARK  status: ('A' for Active; 'I' for Inactive)
REMARK                            x       y       z     vdW  Elec       q    Type
REMARK                         _______ _______ _______ _____ _____    ______ ____
ROOT
ATOM      1 CL   UNL     1     -69.725 -56.654 -31.235  0.00  0.00    +0.000 Cl
ATOM      2 CL   UNL     1     -67.486 -58.241 -32.256  0.00  0.00    +0.000 Cl
ATOM      3 CL   UNL     1     -68.354 -57.525 -35.271  0.00  0.00    +0.000 Cl
ATOM      4 CL   UNL     1     -70.593 -55.939 -34.250  0.00  0.00    +0.000 Cl
ATOM      5  C   UNL     1     -68.859 -57.239 -32.624  0.00  0.00    +0.000 C 
ATOM      6  C   UNL     1     -69.221 -56.940 -33.883  0.00  0.00    +0.000 C 
ENDROOT
TORSDOF 0
ENDMDL
MODEL 7
REMARK VINA RESULT:      -2.4      9.933     10.221
REMARK  Name = Tetrachloroethylene.pdbqt.pdb
REMARK  0 active torsions:
REMARK  status: ('A' for Active; 'I' for Inactive)
REMARK                            x       y       z     vdW  Elec       q    Type
REMARK                         _______ _______ _______ _____ _____    ______ ____
ROOT
ATOM      1 CL   UNL     1     -59.460 -58.107 -59.077  0.00  0.00    +0.000 Cl
ATOM      2 CL   UNL     1     -57.533 -56.556 -60.643  0.00  0.00    +0.000 Cl
ATOM      3 CL   UNL     1     -59.604 -54.094 -60.751  0.00  0.00    +0.000 Cl
ATOM      4 CL   UNL     1     -61.531 -55.646 -59.185  0.00  0.00    +0.000 Cl
ATOM      5  C   UNL     1     -59.100 -56.615 -59.891  0.00  0.00    +0.000 C 
ATOM      6  C   UNL     1     -59.964 -55.587 -59.937  0.00  0.00    +0.000 C 
ENDROOT
TORSDOF 0
ENDMDL
MODEL 8
REMARK VINA RESULT:      -2.4     27.620     29.026
REMARK  Name = Tetrachloroethylene.pdbqt.pdb
REMARK  0 active torsions:
REMARK  status: ('A' for Active; 'I' for Inactive)
REMARK                            x       y       z     vdW  Elec       q    Type
REMARK                         _______ _______ _______ _____ _____    ______ ____
ROOT
ATOM      1 CL   UNL     1     -70.896 -55.894 -34.057  0.00  0.00    +0.000 Cl
ATOM      2 CL   UNL     1     -68.539 -57.191 -35.213  0.00  0.00    +0.000 Cl
ATOM      3 CL   UNL     1     -67.566 -58.049 -32.268  0.00  0.00    +0.000 Cl
ATOM      4 CL   UNL     1     -69.923 -56.751 -31.112  0.00  0.00    +0.000 Cl
ATOM      5  C   UNL     1     -69.434 -56.792 -33.778  0.00  0.00    +0.000 C 
ATOM      6  C   UNL     1     -69.028 -57.150 -32.548  0.00  0.00    +0.000 C 
ENDROOT
TORSDOF 0
ENDMDL
MODEL 9
REMARK VINA RESULT:      -2.4      9.692     10.099
REMARK  Name = Tetrachloroethylene.pdbqt.pdb
REMARK  0 active torsions:
REMARK  status: ('A' for Active; 'I' for Inactive)
REMARK                            x       y       z     vdW  Elec       q    Type
REMARK                         _______ _______ _______ _____ _____    ______ ____
ROOT
ATOM      1 CL   UNL     1     -59.984 -57.468 -57.643  0.00  0.00    +0.000 Cl
ATOM      2 CL   UNL     1     -59.771 -54.580 -57.209  0.00  0.00    +0.000 Cl
ATOM      3 CL   UNL     1     -59.657 -54.110 -60.391  0.00  0.00    +0.000 Cl
ATOM      4 CL   UNL     1     -59.870 -56.998 -60.825  0.00  0.00    +0.000 Cl
ATOM      5  C   UNL     1     -59.844 -55.887 -58.353  0.00  0.00    +0.000 C 
ATOM      6  C   UNL     1     -59.797 -55.691 -59.681  0.00  0.00    +0.000 C 
ENDROOT
TORSDOF 0
ENDMDL
