MODEL 1
REMARK VINA RESULT:      -5.6      0.000      0.000
REMARK  Name = Thalidomide.pdbqt.pdb
REMARK  1 active torsions:
REMARK  status: ('A' for Active; 'I' for Inactive)
REMARK    1  A    between atoms: N_3  and  C_12
REMARK                            x       y       z     vdW  Elec       q    Type
REMARK                         _______ _______ _______ _____ _____    ______ ____
ROOT
ATOM      1  O   UNL     1     -64.571 -46.244 -56.719  0.00  0.00    +0.000 OA
ATOM      2  O   UNL     1     -65.512 -48.182 -60.783  0.00  0.00    +0.000 OA
ATOM      3  N   UNL     1     -65.538 -47.118 -58.681  0.00  0.00    +0.000 N 
ATOM      4  C   UNL     1     -64.543 -46.605 -57.880  0.00  0.00    +0.000 C 
ATOM      5  C   UNL     1     -65.031 -47.487 -59.908  0.00  0.00    +0.000 C 
ATOM      6  C   UNL     1     -63.339 -46.528 -58.699  0.00  0.00    +0.000 A 
ATOM      7  C   UNL     1     -63.642 -47.047 -59.941  0.00  0.00    +0.000 A 
ATOM      8  C   UNL     1     -62.078 -46.064 -58.384  0.00  0.00    +0.000 A 
ATOM      9  C   UNL     1     -62.702 -47.150 -60.944  0.00  0.00    +0.000 A 
ATOM     10  C   UNL     1     -61.113 -46.143 -59.389  0.00  0.00    +0.000 A 
ATOM     11  C   UNL     1     -61.420 -46.679 -60.652  0.00  0.00    +0.000 A 
ENDROOT
BRANCH   3  12
ATOM     12  C   UNL     1     -66.828 -47.351 -58.273  0.00  0.00    +0.000 C 
ATOM     13  C   UNL     1     -67.219 -48.512 -57.569  0.00  0.00    +0.000 C 
ATOM     14  C   UNL     1     -68.655 -48.823 -57.280  0.00  0.00    +0.000 C 
ATOM     15  C   UNL     1     -69.719 -47.939 -57.653  0.00  0.00    +0.000 C 
ATOM     16  O   UNL     1     -70.880 -48.157 -57.350  0.00  0.00    +0.000 OA
ATOM     17  N   UNL     1     -69.272 -46.806 -58.328  0.00  0.00    +0.000 N 
ATOM     18  C   UNL     1     -67.957 -46.353 -58.513  0.00  0.00    +0.000 C 
ATOM     19  H   UNL     1     -69.981 -46.105 -58.481  0.00  0.00    +0.000 HD
ATOM     20  O   UNL     1     -67.744 -45.164 -58.727  0.00  0.00    +0.000 OA
ENDBRANCH   3  12
TORSDOF 1
ENDMDL
MODEL 2
REMARK VINA RESULT:      -5.4     26.743     28.755
REMARK  Name = Thalidomide.pdbqt.pdb
REMARK  1 active torsions:
REMARK  status: ('A' for Active; 'I' for Inactive)
REMARK    1  A    between atoms: N_3  and  C_12
REMARK                            x       y       z     vdW  Elec       q    Type
REMARK                         _______ _______ _______ _____ _____    ______ ____
ROOT
ATOM      1  O   UNL     1     -71.521 -55.849 -33.696  0.00  0.00    +0.000 OA
ATOM      2  O   UNL     1     -67.781 -57.928 -32.007  0.00  0.00    +0.000 OA
ATOM      3  N   UNL     1     -69.919 -57.037 -32.442  0.00  0.00    +0.000 N 
ATOM      4  C   UNL     1     -70.487 -56.476 -33.563  0.00  0.00    +0.000 C 
ATOM      5  C   UNL     1     -68.683 -57.571 -32.740  0.00  0.00    +0.000 C 
ATOM      6  C   UNL     1     -69.605 -56.783 -34.684  0.00  0.00    +0.000 A 
ATOM      7  C   UNL     1     -68.516 -57.467 -34.185  0.00  0.00    +0.000 A 
ATOM      8  C   UNL     1     -69.729 -56.474 -36.022  0.00  0.00    +0.000 A 
ATOM      9  C   UNL     1     -67.472 -57.874 -34.988  0.00  0.00    +0.000 A 
ATOM     10  C   UNL     1     -68.692 -56.890 -36.859  0.00  0.00    +0.000 A 
ATOM     11  C   UNL     1     -67.578 -57.581 -36.350  0.00  0.00    +0.000 A 
ENDROOT
BRANCH   3  12
ATOM     12  C   UNL     1     -70.447 -56.963 -31.177  0.00  0.00    +0.000 C 
ATOM     13  C   UNL     1     -70.265 -55.848 -30.328  0.00  0.00    +0.000 C 
ATOM     14  C   UNL     1     -70.707 -55.857 -28.897  0.00  0.00    +0.000 C 
ATOM     15  C   UNL     1     -71.388 -56.975 -28.314  0.00  0.00    +0.000 C 
ATOM     16  O   UNL     1     -71.815 -56.951 -27.171  0.00  0.00    +0.000 OA
ATOM     17  N   UNL     1     -71.553 -58.034 -29.203  0.00  0.00    +0.000 N 
ATOM     18  C   UNL     1     -71.314 -58.069 -30.584  0.00  0.00    +0.000 C 
ATOM     19  H   UNL     1     -72.147 -58.776 -28.862  0.00  0.00    +0.000 HD
ATOM     20  O   UNL     1     -71.900 -58.887 -31.286  0.00  0.00    +0.000 OA
ENDBRANCH   3  12
TORSDOF 1
ENDMDL
MODEL 3
REMARK VINA RESULT:      -5.2     22.854     25.050
REMARK  Name = Thalidomide.pdbqt.pdb
REMARK  1 active torsions:
REMARK  status: ('A' for Active; 'I' for Inactive)
REMARK    1  A    between atoms: N_3  and  C_12
REMARK                            x       y       z     vdW  Elec       q    Type
REMARK                         _______ _______ _______ _____ _____    ______ ____
ROOT
ATOM      1  O   UNL     1     -70.326 -56.334 -36.586  0.00  0.00    +0.000 OA
ATOM      2  O   UNL     1     -66.760 -59.115 -35.738  0.00  0.00    +0.000 OA
ATOM      3  N   UNL     1     -68.354 -57.623 -36.626  0.00  0.00    +0.000 N 
ATOM      4  C   UNL     1     -69.407 -56.937 -36.064  0.00  0.00    +0.000 C 
ATOM      5  C   UNL     1     -67.603 -58.242 -35.650  0.00  0.00    +0.000 C 
ATOM      6  C   UNL     1     -69.244 -57.023 -34.617  0.00  0.00    +0.000 A 
ATOM      7  C   UNL     1     -68.134 -57.801 -34.366  0.00  0.00    +0.000 A 
ATOM      8  C   UNL     1     -70.010 -56.486 -33.604  0.00  0.00    +0.000 A 
ATOM      9  C   UNL     1     -67.724 -58.107 -33.085  0.00  0.00    +0.000 A 
ATOM     10  C   UNL     1     -69.607 -56.768 -32.297  0.00  0.00    +0.000 A 
ATOM     11  C   UNL     1     -68.479 -57.568 -32.041  0.00  0.00    +0.000 A 
ENDROOT
BRANCH   3  12
ATOM     12  C   UNL     1     -68.153 -57.778 -37.975  0.00  0.00    +0.000 C 
ATOM     13  C   UNL     1     -68.523 -58.944 -38.682  0.00  0.00    +0.000 C 
ATOM     14  C   UNL     1     -68.145 -59.159 -40.116  0.00  0.00    +0.000 C 
ATOM     15  C   UNL     1     -67.431 -58.176 -40.874  0.00  0.00    +0.000 C 
ATOM     16  O   UNL     1     -67.191 -58.320 -42.061  0.00  0.00    +0.000 OA
ATOM     17  N   UNL     1     -67.108 -57.044 -40.129  0.00  0.00    +0.000 N 
ATOM     18  C   UNL     1     -67.540 -56.685 -38.844  0.00  0.00    +0.000 C 
ATOM     19  H   UNL     1     -66.728 -56.283 -40.671  0.00  0.00    +0.000 HD
ATOM     20  O   UNL     1     -67.538 -55.505 -38.505  0.00  0.00    +0.000 OA
ENDBRANCH   3  12
TORSDOF 1
ENDMDL
MODEL 4
REMARK VINA RESULT:      -5.2      2.464      6.302
REMARK  Name = Thalidomide.pdbqt.pdb
REMARK  1 active torsions:
REMARK  status: ('A' for Active; 'I' for Inactive)
REMARK    1  A    between atoms: N_3  and  C_12
REMARK                            x       y       z     vdW  Elec       q    Type
REMARK                         _______ _______ _______ _____ _____    ______ ____
ROOT
ATOM      1  O   UNL     1     -65.983 -47.007 -60.349  0.00  0.00    +0.000 OA
ATOM      2  O   UNL     1     -63.277 -46.681 -56.643  0.00  0.00    +0.000 OA
ATOM      3  N   UNL     1     -64.342 -46.497 -58.737  0.00  0.00    +0.000 N 
ATOM      4  C   UNL     1     -65.553 -46.948 -59.212  0.00  0.00    +0.000 C 
ATOM      5  C   UNL     1     -64.245 -46.711 -57.379  0.00  0.00    +0.000 C 
ATOM      6  C   UNL     1     -66.333 -47.367 -58.054  0.00  0.00    +0.000 A 
ATOM      7  C   UNL     1     -65.543 -47.203 -56.935  0.00  0.00    +0.000 A 
ATOM      8  C   UNL     1     -67.616 -47.868 -57.981  0.00  0.00    +0.000 A 
ATOM      9  C   UNL     1     -65.978 -47.544 -55.672  0.00  0.00    +0.000 A 
ATOM     10  C   UNL     1     -68.086 -48.206 -56.711  0.00  0.00    +0.000 A 
ATOM     11  C   UNL     1     -67.278 -48.047 -55.571  0.00  0.00    +0.000 A 
ENDROOT
BRANCH   3  12
ATOM     12  C   UNL     1     -63.322 -46.020 -59.522  0.00  0.00    +0.000 C 
ATOM     13  C   UNL     1     -62.506 -46.854 -60.320  0.00  0.00    +0.000 C 
ATOM     14  C   UNL     1     -61.298 -46.336 -61.036  0.00  0.00    +0.000 C 
ATOM     15  C   UNL     1     -60.922 -44.953 -61.001  0.00  0.00    +0.000 C 
ATOM     16  O   UNL     1     -59.982 -44.519 -61.646  0.00  0.00    +0.000 OA
ATOM     17  N   UNL     1     -61.771 -44.180 -60.213  0.00  0.00    +0.000 N 
ATOM     18  C   UNL     1     -62.998 -44.534 -59.632  0.00  0.00    +0.000 C 
ATOM     19  H   UNL     1     -61.611 -43.186 -60.280  0.00  0.00    +0.000 HD
ATOM     20  O   UNL     1     -63.817 -43.663 -59.355  0.00  0.00    +0.000 OA
ENDBRANCH   3  12
TORSDOF 1
ENDMDL
MODEL 5
REMARK VINA RESULT:      -5.0     22.932     25.150
REMARK  Name = Thalidomide.pdbqt.pdb
REMARK  1 active torsions:
REMARK  status: ('A' for Active; 'I' for Inactive)
REMARK    1  A    between atoms: N_3  and  C_12
REMARK                            x       y       z     vdW  Elec       q    Type
REMARK                         _______ _______ _______ _____ _____    ______ ____
ROOT
ATOM      1  O   UNL     1     -66.833 -58.669 -35.468  0.00  0.00    +0.000 OA
ATOM      2  O   UNL     1     -70.437 -56.053 -36.621  0.00  0.00    +0.000 OA
ATOM      3  N   UNL     1     -68.662 -57.598 -36.497  0.00  0.00    +0.000 N 
ATOM      4  C   UNL     1     -67.864 -58.023 -35.459  0.00  0.00    +0.000 C 
ATOM      5  C   UNL     1     -69.684 -56.801 -36.027  0.00  0.00    +0.000 C 
ATOM      6  C   UNL     1     -68.494 -57.565 -34.226  0.00  0.00    +0.000 A 
ATOM      7  C   UNL     1     -69.614 -56.838 -34.571  0.00  0.00    +0.000 A 
ATOM      8  C   UNL     1     -68.113 -57.749 -32.913  0.00  0.00    +0.000 A 
ATOM      9  C   UNL     1     -70.419 -56.234 -33.629  0.00  0.00    +0.000 A 
ATOM     10  C   UNL     1     -68.921 -57.160 -31.938  0.00  0.00    +0.000 A 
ATOM     11  C   UNL     1     -70.058 -56.413 -32.291  0.00  0.00    +0.000 A 
ENDROOT
BRANCH   3  12
ATOM     12  C   UNL     1     -68.404 -57.825 -37.826  0.00  0.00    +0.000 C 
ATOM     13  C   UNL     1     -68.837 -58.983 -38.510  0.00  0.00    +0.000 C 
ATOM     14  C   UNL     1     -68.404 -59.288 -39.911  0.00  0.00    +0.000 C 
ATOM     15  C   UNL     1     -67.567 -58.401 -40.663  0.00  0.00    +0.000 C 
ATOM     16  O   UNL     1     -67.277 -58.614 -41.829  0.00  0.00    +0.000 OA
ATOM     17  N   UNL     1     -67.186 -57.272 -39.943  0.00  0.00    +0.000 N 
ATOM     18  C   UNL     1     -67.652 -56.824 -38.698  0.00  0.00    +0.000 C 
ATOM     19  H   UNL     1     -66.712 -56.569 -40.489  0.00  0.00    +0.000 HD
ATOM     20  O   UNL     1     -67.565 -55.636 -38.402  0.00  0.00    +0.000 OA
ENDBRANCH   3  12
TORSDOF 1
ENDMDL
MODEL 6
REMARK VINA RESULT:      -5.0      3.854      5.767
REMARK  Name = Thalidomide.pdbqt.pdb
REMARK  1 active torsions:
REMARK  status: ('A' for Active; 'I' for Inactive)
REMARK    1  A    between atoms: N_3  and  C_12
REMARK                            x       y       z     vdW  Elec       q    Type
REMARK                         _______ _______ _______ _____ _____    ______ ____
ROOT
ATOM      1  O   UNL     1     -67.105 -47.963 -55.496  0.00  0.00    +0.000 OA
ATOM      2  O   UNL     1     -63.068 -45.993 -56.486  0.00  0.00    +0.000 OA
ATOM      3  N   UNL     1     -64.898 -47.141 -55.545  0.00  0.00    +0.000 N 
ATOM      4  C   UNL     1     -66.107 -47.552 -56.058  0.00  0.00    +0.000 C 
ATOM      5  C   UNL     1     -64.086 -46.655 -56.547  0.00  0.00    +0.000 C 
ATOM      6  C   UNL     1     -66.013 -47.435 -57.509  0.00  0.00    +0.000 A 
ATOM      7  C   UNL     1     -64.775 -46.908 -57.808  0.00  0.00    +0.000 A 
ATOM      8  C   UNL     1     -66.937 -47.743 -58.486  0.00  0.00    +0.000 A 
ATOM      9  C   UNL     1     -64.382 -46.639 -59.102  0.00  0.00    +0.000 A 
ATOM     10  C   UNL     1     -66.557 -47.494 -59.807  0.00  0.00    +0.000 A 
ATOM     11  C   UNL     1     -65.297 -46.949 -60.111  0.00  0.00    +0.000 A 
ENDROOT
BRANCH   3  12
ATOM     12  C   UNL     1     -64.590 -47.096 -54.208  0.00  0.00    +0.000 C 
ATOM     13  C   UNL     1     -64.705 -45.925 -53.426  0.00  0.00    +0.000 C 
ATOM     14  C   UNL     1     -64.208 -45.858 -52.015  0.00  0.00    +0.000 C 
ATOM     15  C   UNL     1     -63.632 -46.990 -51.352  0.00  0.00    +0.000 C 
ATOM     16  O   UNL     1     -63.298 -46.955 -50.179  0.00  0.00    +0.000 OA
ATOM     17  N   UNL     1     -63.560 -48.117 -52.167  0.00  0.00    +0.000 N 
ATOM     18  C   UNL     1     -64.126 -48.326 -53.433  0.00  0.00    +0.000 C 
ATOM     19  H   UNL     1     -63.286 -48.962 -51.687  0.00  0.00    +0.000 HD
ATOM     20  O   UNL     1     -64.352 -49.468 -53.822  0.00  0.00    +0.000 OA
ENDBRANCH   3  12
TORSDOF 1
ENDMDL
MODEL 7
REMARK VINA RESULT:      -4.9     26.575     28.562
REMARK  Name = Thalidomide.pdbqt.pdb
REMARK  1 active torsions:
REMARK  status: ('A' for Active; 'I' for Inactive)
REMARK    1  A    between atoms: N_3  and  C_12
REMARK                            x       y       z     vdW  Elec       q    Type
REMARK                         _______ _______ _______ _____ _____    ______ ____
ROOT
ATOM      1  O   UNL     1     -68.229 -59.101 -32.243  0.00  0.00    +0.000 OA
ATOM      2  O   UNL     1     -70.953 -55.885 -34.086  0.00  0.00    +0.000 OA
ATOM      3  N   UNL     1     -69.655 -57.283 -32.703  0.00  0.00    +0.000 N 
ATOM      4  C   UNL     1     -68.730 -58.266 -32.973  0.00  0.00    +0.000 C 
ATOM      5  C   UNL     1     -70.017 -56.627 -33.860  0.00  0.00    +0.000 C 
ATOM      6  C   UNL     1     -68.385 -58.147 -34.385  0.00  0.00    +0.000 A 
ATOM      7  C   UNL     1     -69.154 -57.135 -34.920  0.00  0.00    +0.000 A 
ATOM      8  C   UNL     1     -67.491 -58.872 -35.145  0.00  0.00    +0.000 A 
ATOM      9  C   UNL     1     -69.092 -56.791 -36.254  0.00  0.00    +0.000 A 
ATOM     10  C   UNL     1     -67.398 -58.532 -36.496  0.00  0.00    +0.000 A 
ATOM     11  C   UNL     1     -68.187 -57.506 -37.044  0.00  0.00    +0.000 A 
ENDROOT
BRANCH   3  12
ATOM     12  C   UNL     1     -70.235 -57.070 -31.477  0.00  0.00    +0.000 C 
ATOM     13  C   UNL     1     -70.004 -55.912 -30.703  0.00  0.00    +0.000 C 
ATOM     14  C   UNL     1     -70.514 -55.775 -29.301  0.00  0.00    +0.000 C 
ATOM     15  C   UNL     1     -71.311 -56.788 -28.676  0.00  0.00    +0.000 C 
ATOM     16  O   UNL     1     -71.789 -56.643 -27.563  0.00  0.00    +0.000 OA
ATOM     17  N   UNL     1     -71.519 -57.897 -29.492  0.00  0.00    +0.000 N 
ATOM     18  C   UNL     1     -71.218 -58.057 -30.853  0.00  0.00    +0.000 C 
ATOM     19  H   UNL     1     -72.187 -58.562 -29.131  0.00  0.00    +0.000 HD
ATOM     20  O   UNL     1     -71.834 -58.879 -31.524  0.00  0.00    +0.000 OA
ENDBRANCH   3  12
TORSDOF 1
ENDMDL
MODEL 8
REMARK VINA RESULT:      -4.9     42.588     44.072
REMARK  Name = Thalidomide.pdbqt.pdb
REMARK  1 active torsions:
REMARK  status: ('A' for Active; 'I' for Inactive)
REMARK    1  A    between atoms: N_3  and  C_12
REMARK                            x       y       z     vdW  Elec       q    Type
REMARK                         _______ _______ _______ _____ _____    ______ ____
ROOT
ATOM      1  O   UNL     1     -62.230 -56.128 -17.027  0.00  0.00    +0.000 OA
ATOM      2  O   UNL     1     -66.429 -54.877 -15.624  0.00  0.00    +0.000 OA
ATOM      3  N   UNL     1     -64.216 -55.655 -15.851  0.00  0.00    +0.000 N 
ATOM      4  C   UNL     1     -63.287 -55.548 -16.860  0.00  0.00    +0.000 C 
ATOM      5  C   UNL     1     -65.320 -54.876 -16.123  0.00  0.00    +0.000 C 
ATOM      6  C   UNL     1     -63.780 -54.532 -17.784  0.00  0.00    +0.000 A 
ATOM      7  C   UNL     1     -65.009 -54.108 -17.323  0.00  0.00    +0.000 A 
ATOM      8  C   UNL     1     -63.215 -54.033 -18.939  0.00  0.00    +0.000 A 
ATOM      9  C   UNL     1     -65.762 -53.169 -17.995  0.00  0.00    +0.000 A 
ATOM     10  C   UNL     1     -63.951 -53.068 -19.629  0.00  0.00    +0.000 A 
ATOM     11  C   UNL     1     -65.208 -52.641 -19.164  0.00  0.00    +0.000 A 
ENDROOT
BRANCH   3  12
ATOM     12  C   UNL     1     -64.118 -56.516 -14.786  0.00  0.00    +0.000 C 
ATOM     13  C   UNL     1     -64.388 -57.899 -14.882  0.00  0.00    +0.000 C 
ATOM     14  C   UNL     1     -64.437 -58.787 -13.677  0.00  0.00    +0.000 C 
ATOM     15  C   UNL     1     -64.162 -58.301 -12.358  0.00  0.00    +0.000 C 
ATOM     16  O   UNL     1     -64.128 -59.040 -11.388  0.00  0.00    +0.000 OA
ATOM     17  N   UNL     1     -63.888 -56.936 -12.328  0.00  0.00    +0.000 N 
ATOM     18  C   UNL     1     -63.672 -56.058 -13.401  0.00  0.00    +0.000 C 
ATOM     19  H   UNL     1     -63.559 -56.596 -11.437  0.00  0.00    +0.000 HD
ATOM     20  O   UNL     1     -63.026 -55.028 -13.229  0.00  0.00    +0.000 OA
ENDBRANCH   3  12
TORSDOF 1
ENDMDL
MODEL 9
REMARK VINA RESULT:      -4.8     41.203     44.224
REMARK  Name = Thalidomide.pdbqt.pdb
REMARK  1 active torsions:
REMARK  status: ('A' for Active; 'I' for Inactive)
REMARK    1  A    between atoms: N_3  and  C_12
REMARK                            x       y       z     vdW  Elec       q    Type
REMARK                         _______ _______ _______ _____ _____    ______ ____
ROOT
ATOM      1  O   UNL     1     -42.639 -60.908 -94.076  0.00  0.00    +0.000 OA
ATOM      2  O   UNL     1     -43.773 -64.283 -91.162  0.00  0.00    +0.000 OA
ATOM      3  N   UNL     1     -42.715 -62.730 -92.585  0.00  0.00    +0.000 N 
ATOM      4  C   UNL     1     -43.147 -61.575 -93.193  0.00  0.00    +0.000 C 
ATOM      5  C   UNL     1     -43.664 -63.198 -91.702  0.00  0.00    +0.000 C 
ATOM      6  C   UNL     1     -44.411 -61.211 -92.562  0.00  0.00    +0.000 A 
ATOM      7  C   UNL     1     -44.715 -62.190 -91.639  0.00  0.00    +0.000 A 
ATOM      8  C   UNL     1     -45.237 -60.130 -92.787  0.00  0.00    +0.000 A 
ATOM      9  C   UNL     1     -45.873 -62.160 -90.890  0.00  0.00    +0.000 A 
ATOM     10  C   UNL     1     -46.408 -60.069 -92.029  0.00  0.00    +0.000 A 
ATOM     11  C   UNL     1     -46.723 -61.071 -91.094  0.00  0.00    +0.000 A 
ENDROOT
BRANCH   3  12
ATOM     12  C   UNL     1     -41.558 -63.398 -92.906  0.00  0.00    +0.000 C 
ATOM     13  C   UNL     1     -41.431 -64.218 -94.049  0.00  0.00    +0.000 C 
ATOM     14  C   UNL     1     -40.220 -65.066 -94.290  0.00  0.00    +0.000 C 
ATOM     15  C   UNL     1     -39.093 -65.058 -93.405  0.00  0.00    +0.000 C 
ATOM     16  O   UNL     1     -38.077 -65.691 -93.642  0.00  0.00    +0.000 OA
ATOM     17  N   UNL     1     -39.270 -64.220 -92.307  0.00  0.00    +0.000 N 
ATOM     18  C   UNL     1     -40.287 -63.283 -92.070  0.00  0.00    +0.000 C 
ATOM     19  H   UNL     1     -38.443 -64.091 -91.743  0.00  0.00    +0.000 HD
ATOM     20  O   UNL     1     -40.085 -62.339 -91.312  0.00  0.00    +0.000 OA
ENDBRANCH   3  12
TORSDOF 1
ENDMDL
