MODEL 1
REMARK VINA RESULT:      -5.9      0.000      0.000
REMARK  Name = Thapsigargin.pdbqt.pdb
REMARK  10 active torsions:
REMARK  status: ('A' for Active; 'I' for Inactive)
REMARK    1  A    between atoms: O_2  and  C_24
REMARK    2  A    between atoms: C_17  and  O_43
REMARK    3  A    between atoms: C_19  and  C_24
REMARK    4  A    between atoms: C_19  and  O_47
REMARK    5  A    between atoms: C_27  and  C_35
REMARK    6  A    between atoms: C_35  and  C_36
REMARK    7  A    between atoms: C_37  and  C_38
REMARK    8  A    between atoms: C_39  and  C_40
REMARK    9  A    between atoms: C_42  and  O_43
REMARK   10  A    between atoms: C_42  and  C_44
REMARK                            x       y       z     vdW  Elec       q    Type
REMARK                         _______ _______ _______ _____ _____    ______ ____
ROOT
ATOM      1  O   UNL     1     -63.320 -44.770 -57.592  0.00  0.00    +0.000 OA
ATOM      2  O   UNL     1     -58.429 -42.536 -54.802  0.00  0.00    +0.000 OA
ATOM      3  O   UNL     1     -58.677 -44.861 -53.766  0.00  0.00    +0.000 OA
ATOM      4  O   UNL     1     -62.225 -42.871 -52.827  0.00  0.00    +0.000 OA
ATOM      5  O   UNL     1     -64.316 -45.831 -59.355  0.00  0.00    +0.000 OA
ATOM      6  O   UNL     1     -57.900 -44.916 -55.016  0.00  0.00    +0.000 OA
ATOM      7  O   UNL     1     -58.261 -44.506 -51.379  0.00  0.00    +0.000 OA
ATOM      8  O   UNL     1     -63.823 -44.716 -53.325  0.00  0.00    +0.000 OA
ATOM      9  C   UNL     1     -60.679 -42.371 -55.968  0.00  0.00    +0.000 C 
ATOM     10  C   UNL     1     -61.435 -43.972 -58.691  0.00  0.00    +0.000 C 
ATOM     11  C   UNL     1     -62.179 -43.989 -57.467  0.00  0.00    +0.000 C 
ATOM     12  C   UNL     1     -59.597 -41.982 -56.919  0.00  0.00    +0.000 C 
ATOM     13  C   UNL     1     -61.862 -43.309 -56.343  0.00  0.00    +0.000 C 
ATOM     14  C   UNL     1     -60.414 -43.184 -58.767  0.00  0.00    +0.000 C 
ATOM     15  C   UNL     1     -59.512 -42.236 -58.238  0.00  0.00    +0.000 C 
ATOM     16  C   UNL     1     -61.088 -41.766 -54.721  0.00  0.00    +0.000 C 
ATOM     17  C   UNL     1     -62.116 -44.815 -59.691  0.00  0.00    +0.000 C 
ATOM     18  C   UNL     1     -62.152 -42.513 -54.177  0.00  0.00    +0.000 C 
ATOM     19  C   UNL     1     -62.693 -43.297 -55.134  0.00  0.00    +0.000 C 
ATOM     20  C   UNL     1     -59.316 -42.963 -55.854  0.00  0.00    +0.000 C 
ATOM     21  C   UNL     1     -63.360 -45.214 -58.894  0.00  0.00    +0.000 C 
ATOM     22  C   UNL     1     -63.507 -44.265 -54.533  0.00  0.00    +0.000 C 
ATOM     23  C   UNL     1     -57.970 -43.605 -55.641  0.00  0.00    +0.000 C 
ATOM     24  C   UNL     1     -57.812 -44.744 -52.672  0.00  0.00    +0.000 C 
ATOM     25  C   UNL     1     -62.782 -44.167 -52.517  0.00  0.00    +0.000 C 
ATOM     26  C   UNL     1     -56.722 -43.237 -56.454  0.00  0.00    +0.000 C 
ATOM     27  C   UNL     1     -62.142 -44.961 -51.634  0.00  0.00    +0.000 C 
ATOM     28  C   UNL     1     -62.647 -46.346 -51.298  0.00  0.00    +0.000 C 
ATOM     29  C   UNL     1     -60.784 -44.701 -51.294  0.00  0.00    +0.000 C 
ATOM     30  C   UNL     1     -59.587 -44.586 -51.280  0.00  0.00    +0.000 C 
ENDROOT
BRANCH  17  31
ATOM     31  O   UNL     1     -62.420 -44.068 -60.856  0.00  0.00    +0.000 OA
ATOM     32  H   UNL     1     -62.667 -44.727 -61.532  0.00  0.00    +0.000 HD
ENDBRANCH  17  31
BRANCH  17  33
ATOM     33  C   UNL     1     -61.283 -45.978 -60.048  0.00  0.00    +0.000 C 
BRANCH  33  34
ATOM     34  O   UNL     1     -60.535 -47.024 -60.394  0.00  0.00    +0.000 OA
ATOM     35  H   UNL     1     -60.102 -46.877 -61.255  0.00  0.00    +0.000 HD
ENDBRANCH  33  34
ENDBRANCH  17  33
BRANCH  24  36
ATOM     36  C   UNL     1     -56.525 -44.663 -52.831  0.00  0.00    +0.000 C 
BRANCH  36  37
ATOM     37  C   UNL     1     -55.007 -44.527 -52.988  0.00  0.00    +0.000 C 
ATOM     38  C   UNL     1     -53.813 -44.453 -53.094  0.00  0.00    +0.000 C 
BRANCH  38  39
ATOM     39  C   UNL     1     -52.288 -44.385 -53.219  0.00  0.00    +0.000 C 
ATOM     40  C   UNL     1     -51.092 -44.344 -53.309  0.00  0.00    +0.000 C 
BRANCH  40  41
ATOM     41  C   UNL     1     -49.565 -44.299 -53.423  0.00  0.00    +0.000 C 
ATOM     42  C   UNL     1     -48.237 -44.257 -53.521  0.00  0.00    +0.000 C 
ENDBRANCH  40  41
ENDBRANCH  38  39
ENDBRANCH  36  37
ENDBRANCH  24  36
BRANCH  15  43
ATOM     43  O   UNL     1     -58.775 -41.398 -59.081  0.00  0.00    +0.000 OA
BRANCH  43  45
ATOM     44  O   UNL     1     -60.175 -40.458 -60.688  0.00  0.00    +0.000 OA
ATOM     45  C   UNL     1     -59.312 -41.248 -60.330  0.00  0.00    +0.000 C 
BRANCH  45  46
ATOM     46  C   UNL     1     -58.744 -42.171 -61.264  0.00  0.00    +0.000 C 
ATOM     47  C   UNL     1     -58.274 -42.947 -62.044  0.00  0.00    +0.000 C 
ATOM     48  C   UNL     1     -57.659 -43.932 -63.042  0.00  0.00    +0.000 C 
ENDBRANCH  45  46
ENDBRANCH  43  45
ENDBRANCH  15  43
TORSDOF 10
ENDMDL
MODEL 2
REMARK VINA RESULT:      -5.9     20.264     24.825
REMARK  Name = Thapsigargin.pdbqt.pdb
REMARK  10 active torsions:
REMARK  status: ('A' for Active; 'I' for Inactive)
REMARK    1  A    between atoms: O_2  and  C_24
REMARK    2  A    between atoms: C_17  and  O_43
REMARK    3  A    between atoms: C_19  and  C_24
REMARK    4  A    between atoms: C_19  and  O_47
REMARK    5  A    between atoms: C_27  and  C_35
REMARK    6  A    between atoms: C_35  and  C_36
REMARK    7  A    between atoms: C_37  and  C_38
REMARK    8  A    between atoms: C_39  and  C_40
REMARK    9  A    between atoms: C_42  and  O_43
REMARK   10  A    between atoms: C_42  and  C_44
REMARK                            x       y       z     vdW  Elec       q    Type
REMARK                         _______ _______ _______ _____ _____    ______ ____
ROOT
ATOM      1  O   UNL     1     -56.992 -61.506 -67.011  0.00  0.00    +0.000 OA
ATOM      2  O   UNL     1     -52.665 -63.567 -70.717  0.00  0.00    +0.000 OA
ATOM      3  O   UNL     1     -54.732 -63.494 -72.222  0.00  0.00    +0.000 OA
ATOM      4  O   UNL     1     -55.727 -66.130 -69.141  0.00  0.00    +0.000 OA
ATOM      5  O   UNL     1     -58.109 -59.796 -65.985  0.00  0.00    +0.000 OA
ATOM      6  O   UNL     1     -54.046 -62.190 -72.197  0.00  0.00    +0.000 OA
ATOM      7  O   UNL     1     -54.625 -65.582 -73.496  0.00  0.00    +0.000 OA
ATOM      8  O   UNL     1     -58.039 -65.319 -68.696  0.00  0.00    +0.000 OA
ATOM      9  C   UNL     1     -53.794 -63.246 -68.464  0.00  0.00    +0.000 C 
ATOM     10  C   UNL     1     -54.984 -60.411 -67.416  0.00  0.00    +0.000 C 
ATOM     11  C   UNL     1     -55.696 -61.652 -67.489  0.00  0.00    +0.000 C 
ATOM     12  C   UNL     1     -52.635 -62.314 -68.576  0.00  0.00    +0.000 C 
ATOM     13  C   UNL     1     -55.188 -62.829 -67.915  0.00  0.00    +0.000 C 
ATOM     14  C   UNL     1     -53.725 -60.420 -67.707  0.00  0.00    +0.000 C 
ATOM     15  C   UNL     1     -52.533 -61.049 -68.126  0.00  0.00    +0.000 C 
ATOM     16  C   UNL     1     -53.833 -64.691 -68.472  0.00  0.00    +0.000 C 
ATOM     17  C   UNL     1     -55.871 -59.366 -66.874  0.00  0.00    +0.000 C 
ATOM     18  C   UNL     1     -55.173 -65.113 -68.356  0.00  0.00    +0.000 C 
ATOM     19  C   UNL     1     -55.933 -64.092 -67.904  0.00  0.00    +0.000 C 
ATOM     20  C   UNL     1     -53.369 -62.716 -69.791  0.00  0.00    +0.000 C 
ATOM     21  C   UNL     1     -57.115 -60.207 -66.576  0.00  0.00    +0.000 C 
ATOM     22  C   UNL     1     -57.285 -64.398 -68.107  0.00  0.00    +0.000 C 
ATOM     23  C   UNL     1     -53.009 -62.254 -71.179  0.00  0.00    +0.000 C 
ATOM     24  C   UNL     1     -54.279 -64.249 -73.309  0.00  0.00    +0.000 C 
ATOM     25  C   UNL     1     -57.102 -65.972 -69.552  0.00  0.00    +0.000 C 
ATOM     26  C   UNL     1     -51.783 -61.384 -71.486  0.00  0.00    +0.000 C 
ATOM     27  C   UNL     1     -57.432 -66.206 -70.839  0.00  0.00    +0.000 C 
ATOM     28  C   UNL     1     -58.845 -66.017 -71.345  0.00  0.00    +0.000 C 
ATOM     29  C   UNL     1     -56.420 -66.247 -71.839  0.00  0.00    +0.000 C 
ATOM     30  C   UNL     1     -55.561 -65.987 -72.640  0.00  0.00    +0.000 C 
ENDROOT
BRANCH  17  31
ATOM     31  O   UNL     1     -55.308 -58.780 -65.713  0.00  0.00    +0.000 OA
ATOM     32  H   UNL     1     -56.065 -58.474 -65.180  0.00  0.00    +0.000 HD
ENDBRANCH  17  31
BRANCH  17  33
ATOM     33  C   UNL     1     -56.128 -58.323 -67.883  0.00  0.00    +0.000 C 
BRANCH  33  34
ATOM     34  O   UNL     1     -56.366 -57.399 -68.812  0.00  0.00    +0.000 OA
ATOM     35  H   UNL     1     -55.566 -56.870 -68.995  0.00  0.00    +0.000 HD
ENDBRANCH  33  34
ENDBRANCH  17  33
BRANCH  24  36
ATOM     36  C   UNL     1     -53.356 -63.803 -74.108  0.00  0.00    +0.000 C 
BRANCH  36  37
ATOM     37  C   UNL     1     -52.304 -63.252 -75.075  0.00  0.00    +0.000 C 
ATOM     38  C   UNL     1     -51.494 -62.787 -75.830  0.00  0.00    +0.000 C 
BRANCH  38  39
ATOM     39  C   UNL     1     -50.471 -62.168 -76.787  0.00  0.00    +0.000 C 
ATOM     40  C   UNL     1     -49.675 -61.690 -77.549  0.00  0.00    +0.000 C 
BRANCH  40  41
ATOM     41  C   UNL     1     -48.666 -61.083 -78.527  0.00  0.00    +0.000 C 
ATOM     42  C   UNL     1     -47.789 -60.551 -79.378  0.00  0.00    +0.000 C 
ENDBRANCH  40  41
ENDBRANCH  38  39
ENDBRANCH  36  37
ENDBRANCH  24  36
BRANCH  15  43
ATOM     43  O   UNL     1     -51.284 -60.499 -67.817  0.00  0.00    +0.000 OA
BRANCH  43  45
ATOM     44  O   UNL     1     -51.266 -58.526 -66.579  0.00  0.00    +0.000 OA
ATOM     45  C   UNL     1     -51.299 -59.144 -67.635  0.00  0.00    +0.000 C 
BRANCH  45  46
ATOM     46  C   UNL     1     -51.370 -58.444 -68.881  0.00  0.00    +0.000 C 
ATOM     47  C   UNL     1     -51.429 -57.864 -69.926  0.00  0.00    +0.000 C 
ATOM     48  C   UNL     1     -51.500 -57.110 -71.256  0.00  0.00    +0.000 C 
ENDBRANCH  45  46
ENDBRANCH  43  45
ENDBRANCH  15  43
TORSDOF 10
ENDMDL
MODEL 3
REMARK VINA RESULT:      -5.8     34.947     40.503
REMARK  Name = Thapsigargin.pdbqt.pdb
REMARK  10 active torsions:
REMARK  status: ('A' for Active; 'I' for Inactive)
REMARK    1  A    between atoms: O_2  and  C_24
REMARK    2  A    between atoms: C_17  and  O_43
REMARK    3  A    between atoms: C_19  and  C_24
REMARK    4  A    between atoms: C_19  and  O_47
REMARK    5  A    between atoms: C_27  and  C_35
REMARK    6  A    between atoms: C_35  and  C_36
REMARK    7  A    between atoms: C_37  and  C_38
REMARK    8  A    between atoms: C_39  and  C_40
REMARK    9  A    between atoms: C_42  and  O_43
REMARK   10  A    between atoms: C_42  and  C_44
REMARK                            x       y       z     vdW  Elec       q    Type
REMARK                         _______ _______ _______ _____ _____    ______ ____
ROOT
ATOM      1  O   UNL     1     -64.131 -50.847 -13.448  0.00  0.00    +0.000 OA
ATOM      2  O   UNL     1     -64.732 -52.761 -19.164  0.00  0.00    +0.000 OA
ATOM      3  O   UNL     1     -63.005 -50.885 -19.359  0.00  0.00    +0.000 OA
ATOM      4  O   UNL     1     -66.424 -49.056 -17.812  0.00  0.00    +0.000 OA
ATOM      5  O   UNL     1     -63.205 -51.008 -11.364  0.00  0.00    +0.000 OA
ATOM      6  O   UNL     1     -62.361 -52.168 -19.030  0.00  0.00    +0.000 OA
ATOM      7  O   UNL     1     -63.680 -49.648 -21.362  0.00  0.00    +0.000 OA
ATOM      8  O   UNL     1     -65.333 -47.656 -16.064  0.00  0.00    +0.000 OA
ATOM      9  C   UNL     1     -65.537 -52.325 -16.795  0.00  0.00    +0.000 C 
ATOM     10  C   UNL     1     -63.823 -53.045 -14.132  0.00  0.00    +0.000 C 
ATOM     11  C   UNL     1     -64.384 -51.768 -14.456  0.00  0.00    +0.000 C 
ATOM     12  C   UNL     1     -65.229 -53.775 -16.955  0.00  0.00    +0.000 C 
ATOM     13  C   UNL     1     -65.106 -51.482 -15.561  0.00  0.00    +0.000 C 
ATOM     14  C   UNL     1     -64.087 -54.038 -14.917  0.00  0.00    +0.000 C 
ATOM     15  C   UNL     1     -64.675 -54.616 -16.062  0.00  0.00    +0.000 C 
ATOM     16  C   UNL     1     -66.517 -51.500 -17.464  0.00  0.00    +0.000 C 
ATOM     17  C   UNL     1     -63.132 -52.963 -12.832  0.00  0.00    +0.000 C 
ATOM     18  C   UNL     1     -66.412 -50.180 -16.980  0.00  0.00    +0.000 C 
ATOM     19  C   UNL     1     -65.725 -50.177 -15.817  0.00  0.00    +0.000 C 
ATOM     20  C   UNL     1     -64.482 -52.778 -17.745  0.00  0.00    +0.000 C 
ATOM     21  C   UNL     1     -63.465 -51.519 -12.450  0.00  0.00    +0.000 C 
ATOM     22  C   UNL     1     -65.334 -48.866 -15.515  0.00  0.00    +0.000 C 
ATOM     23  C   UNL     1     -63.412 -53.132 -18.744  0.00  0.00    +0.000 C 
ATOM     24  C   UNL     1     -62.999 -50.690 -20.745  0.00  0.00    +0.000 C 
ATOM     25  C   UNL     1     -65.573 -47.950 -17.440  0.00  0.00    +0.000 C 
ATOM     26  C   UNL     1     -63.047 -54.576 -19.113  0.00  0.00    +0.000 C 
ATOM     27  C   UNL     1     -64.805 -47.368 -18.385  0.00  0.00    +0.000 C 
ATOM     28  C   UNL     1     -63.860 -46.235 -18.054  0.00  0.00    +0.000 C 
ATOM     29  C   UNL     1     -64.557 -48.039 -19.616  0.00  0.00    +0.000 C 
ATOM     30  C   UNL     1     -64.173 -48.775 -20.485  0.00  0.00    +0.000 C 
ENDROOT
BRANCH  17  31
ATOM     31  O   UNL     1     -63.658 -53.913 -11.922  0.00  0.00    +0.000 OA
ATOM     32  H   UNL     1     -63.466 -54.786 -12.313  0.00  0.00    +0.000 HD
ENDBRANCH  17  31
BRANCH  17  33
ATOM     33  C   UNL     1     -61.683 -53.180 -12.996  0.00  0.00    +0.000 C 
BRANCH  33  34
ATOM     34  O   UNL     1     -60.379 -53.391 -13.163  0.00  0.00    +0.000 OA
ATOM     35  H   UNL     1     -60.167 -53.555 -14.101  0.00  0.00    +0.000 HD
ENDBRANCH  33  34
ENDBRANCH  17  33
BRANCH  24  36
ATOM     36  C   UNL     1     -62.510 -51.583 -21.553  0.00  0.00    +0.000 C 
BRANCH  36  37
ATOM     37  C   UNL     1     -61.955 -52.611 -22.544  0.00  0.00    +0.000 C 
ATOM     38  C   UNL     1     -61.547 -53.408 -23.344  0.00  0.00    +0.000 C 
BRANCH  38  39
ATOM     39  C   UNL     1     -61.047 -54.418 -24.382  0.00  0.00    +0.000 C 
ATOM     40  C   UNL     1     -60.641 -55.204 -25.193  0.00  0.00    +0.000 C 
BRANCH  40  41
ATOM     41  C   UNL     1     -60.116 -56.206 -26.224  0.00  0.00    +0.000 C 
ATOM     42  C   UNL     1     -59.660 -57.077 -27.124  0.00  0.00    +0.000 C 
ENDBRANCH  40  41
ENDBRANCH  38  39
ENDBRANCH  36  37
ENDBRANCH  24  36
BRANCH  15  43
ATOM     43  O   UNL     1     -64.929 -55.991 -16.122  0.00  0.00    +0.000 OA
BRANCH  43  45
ATOM     44  O   UNL     1     -62.696 -56.652 -16.122  0.00  0.00    +0.000 OA
ATOM     45  C   UNL     1     -63.862 -56.772 -15.773  0.00  0.00    +0.000 C 
BRANCH  45  46
ATOM     46  C   UNL     1     -64.249 -57.837 -14.899  0.00  0.00    +0.000 C 
ATOM     47  C   UNL     1     -64.570 -58.732 -14.172  0.00  0.00    +0.000 C 
ATOM     48  C   UNL     1     -64.991 -59.867 -13.235  0.00  0.00    +0.000 C 
ENDBRANCH  45  46
ENDBRANCH  43  45
ENDBRANCH  15  43
TORSDOF 10
ENDMDL
MODEL 4
REMARK VINA RESULT:      -5.8     36.096     41.944
REMARK  Name = Thapsigargin.pdbqt.pdb
REMARK  10 active torsions:
REMARK  status: ('A' for Active; 'I' for Inactive)
REMARK    1  A    between atoms: O_2  and  C_24
REMARK    2  A    between atoms: C_17  and  O_43
REMARK    3  A    between atoms: C_19  and  C_24
REMARK    4  A    between atoms: C_19  and  O_47
REMARK    5  A    between atoms: C_27  and  C_35
REMARK    6  A    between atoms: C_35  and  C_36
REMARK    7  A    between atoms: C_37  and  C_38
REMARK    8  A    between atoms: C_39  and  C_40
REMARK    9  A    between atoms: C_42  and  O_43
REMARK   10  A    between atoms: C_42  and  C_44
REMARK                            x       y       z     vdW  Elec       q    Type
REMARK                         _______ _______ _______ _____ _____    ______ ____
ROOT
ATOM      1  O   UNL     1     -61.175 -58.788 -17.254  0.00  0.00    +0.000 OA
ATOM      2  O   UNL     1     -63.586 -53.260 -16.682  0.00  0.00    +0.000 OA
ATOM      3  O   UNL     1     -64.021 -53.832 -19.137  0.00  0.00    +0.000 OA
ATOM      4  O   UNL     1     -59.867 -53.925 -18.720  0.00  0.00    +0.000 OA
ATOM      5  O   UNL     1     -61.301 -61.063 -17.064  0.00  0.00    +0.000 OA
ATOM      6  O   UNL     1     -65.092 -54.355 -18.271  0.00  0.00    +0.000 OA
ATOM      7  O   UNL     1     -63.499 -51.764 -20.340  0.00  0.00    +0.000 OA
ATOM      8  O   UNL     1     -59.415 -56.004 -20.014  0.00  0.00    +0.000 OA
ATOM      9  C   UNL     1     -61.946 -55.116 -16.118  0.00  0.00    +0.000 C 
ATOM     10  C   UNL     1     -62.796 -58.222 -15.689  0.00  0.00    +0.000 C 
ATOM     11  C   UNL     1     -61.791 -57.737 -16.587  0.00  0.00    +0.000 C 
ATOM     12  C   UNL     1     -63.003 -55.051 -15.068  0.00  0.00    +0.000 C 
ATOM     13  C   UNL     1     -61.436 -56.444 -16.750  0.00  0.00    +0.000 C 
ATOM     14  C   UNL     1     -63.368 -57.369 -14.905  0.00  0.00    +0.000 C 
ATOM     15  C   UNL     1     -63.585 -56.067 -14.404  0.00  0.00    +0.000 C 
ATOM     16  C   UNL     1     -60.963 -54.134 -16.516  0.00  0.00    +0.000 C 
ATOM     17  C   UNL     1     -62.868 -59.692 -15.779  0.00  0.00    +0.000 C 
ATOM     18  C   UNL     1     -60.194 -54.658 -17.575  0.00  0.00    +0.000 C 
ATOM     19  C   UNL     1     -60.349 -55.998 -17.628  0.00  0.00    +0.000 C 
ATOM     20  C   UNL     1     -63.325 -54.659 -16.452  0.00  0.00    +0.000 C 
ATOM     21  C   UNL     1     -61.723 -59.950 -16.761  0.00  0.00    +0.000 C 
ATOM     22  C   UNL     1     -59.869 -56.471 -18.857  0.00  0.00    +0.000 C 
ATOM     23  C   UNL     1     -64.679 -54.165 -16.890  0.00  0.00    +0.000 C 
ATOM     24  C   UNL     1     -64.378 -52.572 -19.630  0.00  0.00    +0.000 C 
ATOM     25  C   UNL     1     -59.833 -54.641 -19.974  0.00  0.00    +0.000 C 
ATOM     26  C   UNL     1     -65.845 -53.932 -15.920  0.00  0.00    +0.000 C 
ATOM     27  C   UNL     1     -60.440 -54.102 -21.052  0.00  0.00    +0.000 C 
ATOM     28  C   UNL     1     -60.479 -54.818 -22.383  0.00  0.00    +0.000 C 
ATOM     29  C   UNL     1     -61.392 -53.056 -20.887  0.00  0.00    +0.000 C 
ATOM     30  C   UNL     1     -62.366 -52.394 -20.645  0.00  0.00    +0.000 C 
ENDROOT
BRANCH  17  31
ATOM     31  O   UNL     1     -62.654 -60.285 -14.510  0.00  0.00    +0.000 OA
ATOM     32  H   UNL     1     -63.544 -60.453 -14.147  0.00  0.00    +0.000 HD
ENDBRANCH  17  31
BRANCH  17  33
ATOM     33  C   UNL     1     -64.173 -60.118 -16.315  0.00  0.00    +0.000 C 
BRANCH  33  34
ATOM     34  O   UNL     1     -65.360 -60.481 -16.797  0.00  0.00    +0.000 OA
ATOM     35  H   UNL     1     -65.301 -61.330 -17.275  0.00  0.00    +0.000 HD
ENDBRANCH  33  34
ENDBRANCH  17  33
BRANCH  24  36
ATOM     36  C   UNL     1     -65.497 -52.004 -19.290  0.00  0.00    +0.000 C 
BRANCH  36  37
ATOM     37  C   UNL     1     -66.820 -51.317 -18.937  0.00  0.00    +0.000 C 
ATOM     38  C   UNL     1     -67.846 -50.749 -18.681  0.00  0.00    +0.000 C 
BRANCH  38  39
ATOM     39  C   UNL     1     -69.149 -50.005 -18.371  0.00  0.00    +0.000 C 
ATOM     40  C   UNL     1     -70.174 -49.424 -18.142  0.00  0.00    +0.000 C 
BRANCH  40  41
ATOM     41  C   UNL     1     -71.485 -48.686 -17.857  0.00  0.00    +0.000 C 
ATOM     42  C   UNL     1     -72.627 -48.047 -17.608  0.00  0.00    +0.000 C 
ENDBRANCH  40  41
ENDBRANCH  38  39
ENDBRANCH  36  37
ENDBRANCH  24  36
BRANCH  15  43
ATOM     43  O   UNL     1     -64.128 -55.870 -13.129  0.00  0.00    +0.000 OA
BRANCH  43  45
ATOM     44  O   UNL     1     -62.357 -56.152 -11.641  0.00  0.00    +0.000 OA
ATOM     45  C   UNL     1     -63.431 -56.484 -12.124  0.00  0.00    +0.000 C 
BRANCH  45  46
ATOM     46  C   UNL     1     -64.111 -57.648 -11.645  0.00  0.00    +0.000 C 
ATOM     47  C   UNL     1     -64.675 -58.624 -11.240  0.00  0.00    +0.000 C 
ATOM     48  C   UNL     1     -65.406 -59.869 -10.735  0.00  0.00    +0.000 C 
ENDBRANCH  45  46
ENDBRANCH  43  45
ENDBRANCH  15  43
TORSDOF 10
ENDMDL
MODEL 5
REMARK VINA RESULT:      -5.7     28.193     33.850
REMARK  Name = Thapsigargin.pdbqt.pdb
REMARK  10 active torsions:
REMARK  status: ('A' for Active; 'I' for Inactive)
REMARK    1  A    between atoms: O_2  and  C_24
REMARK    2  A    between atoms: C_17  and  O_43
REMARK    3  A    between atoms: C_19  and  C_24
REMARK    4  A    between atoms: C_19  and  O_47
REMARK    5  A    between atoms: C_27  and  C_35
REMARK    6  A    between atoms: C_35  and  C_36
REMARK    7  A    between atoms: C_37  and  C_38
REMARK    8  A    between atoms: C_39  and  C_40
REMARK    9  A    between atoms: C_42  and  O_43
REMARK   10  A    between atoms: C_42  and  C_44
REMARK                            x       y       z     vdW  Elec       q    Type
REMARK                         _______ _______ _______ _____ _____    ______ ____
ROOT
ATOM      1  O   UNL     1     -69.968 -61.039 -32.924  0.00  0.00    +0.000 OA
ATOM      2  O   UNL     1     -73.509 -59.437 -28.277  0.00  0.00    +0.000 OA
ATOM      3  O   UNL     1     -71.800 -61.001 -27.192  0.00  0.00    +0.000 OA
ATOM      4  O   UNL     1     -73.727 -63.330 -30.072  0.00  0.00    +0.000 OA
ATOM      5  O   UNL     1     -68.207 -60.657 -34.330  0.00  0.00    +0.000 OA
ATOM      6  O   UNL     1     -71.297 -59.617 -27.245  0.00  0.00    +0.000 OA
ATOM      7  O   UNL     1     -73.130 -62.397 -25.683  0.00  0.00    +0.000 OA
ATOM      8  O   UNL     1     -71.726 -64.468 -31.022  0.00  0.00    +0.000 OA
ATOM      9  C   UNL     1     -73.013 -59.927 -30.719  0.00  0.00    +0.000 C 
ATOM     10  C   UNL     1     -70.385 -58.843 -32.291  0.00  0.00    +0.000 C 
ATOM     11  C   UNL     1     -70.816 -60.206 -32.204  0.00  0.00    +0.000 C 
ATOM     12  C   UNL     1     -73.059 -58.452 -30.508  0.00  0.00    +0.000 C 
ATOM     13  C   UNL     1     -71.917 -60.646 -31.558  0.00  0.00    +0.000 C 
ATOM     14  C   UNL     1     -71.148 -57.935 -31.777  0.00  0.00    +0.000 C 
ATOM     15  C   UNL     1     -72.294 -57.501 -31.077  0.00  0.00    +0.000 C 
ATOM     16  C   UNL     1     -74.043 -60.927 -30.549  0.00  0.00    +0.000 C 
ATOM     17  C   UNL     1     -69.159 -58.766 -33.105  0.00  0.00    +0.000 C 
ATOM     18  C   UNL     1     -73.506 -62.194 -30.857  0.00  0.00    +0.000 C 
ATOM     19  C   UNL     1     -72.360 -62.044 -31.556  0.00  0.00    +0.000 C 
ATOM     20  C   UNL     1     -72.624 -59.333 -29.409  0.00  0.00    +0.000 C 
ATOM     21  C   UNL     1     -69.029 -60.232 -33.524  0.00  0.00    +0.000 C 
ATOM     22  C   UNL     1     -71.664 -63.260 -31.568  0.00  0.00    +0.000 C 
ATOM     23  C   UNL     1     -72.228 -58.836 -28.043  0.00  0.00    +0.000 C 
ATOM     24  C   UNL     1     -72.419 -61.235 -25.960  0.00  0.00    +0.000 C 
ATOM     25  C   UNL     1     -72.633 -64.264 -29.940  0.00  0.00    +0.000 C 
ATOM     26  C   UNL     1     -72.324 -57.364 -27.621  0.00  0.00    +0.000 C 
ATOM     27  C   UNL     1     -72.321 -64.738 -28.716  0.00  0.00    +0.000 C 
ATOM     28  C   UNL     1     -71.160 -65.684 -28.501  0.00  0.00    +0.000 C 
ATOM     29  C   UNL     1     -72.799 -64.075 -27.550  0.00  0.00    +0.000 C 
ATOM     30  C   UNL     1     -72.998 -63.312 -26.642  0.00  0.00    +0.000 C 
ENDROOT
BRANCH  17  31
ATOM     31  O   UNL     1     -69.338 -57.889 -34.205  0.00  0.00    +0.000 OA
ATOM     32  H   UNL     1     -68.892 -57.059 -33.953  0.00  0.00    +0.000 HD
ENDBRANCH  17  31
BRANCH  17  33
ATOM     33  C   UNL     1     -68.018 -58.313 -32.289  0.00  0.00    +0.000 C 
BRANCH  33  34
ATOM     34  O   UNL     1     -66.983 -57.927 -31.545  0.00  0.00    +0.000 OA
ATOM     35  H   UNL     1     -67.039 -56.977 -31.330  0.00  0.00    +0.000 HD
ENDBRANCH  33  34
ENDBRANCH  17  33
BRANCH  24  36
ATOM     36  C   UNL     1     -72.524 -60.299 -25.064  0.00  0.00    +0.000 C 
BRANCH  36  37
ATOM     37  C   UNL     1     -72.653 -59.162 -24.046  0.00  0.00    +0.000 C 
ATOM     38  C   UNL     1     -72.783 -58.287 -23.235  0.00  0.00    +0.000 C 
BRANCH  38  39
ATOM     39  C   UNL     1     -72.970 -57.184 -22.188  0.00  0.00    +0.000 C 
ATOM     40  C   UNL     1     -73.102 -56.317 -21.368  0.00  0.00    +0.000 C 
BRANCH  40  41
ATOM     41  C   UNL     1     -73.263 -55.209 -20.323  0.00  0.00    +0.000 C 
ATOM     42  C   UNL     1     -73.403 -54.247 -19.412  0.00  0.00    +0.000 C 
ENDBRANCH  40  41
ENDBRANCH  38  39
ENDBRANCH  36  37
ENDBRANCH  24  36
BRANCH  15  43
ATOM     43  O   UNL     1     -72.767 -56.191 -31.216  0.00  0.00    +0.000 OA
BRANCH  43  45
ATOM     44  O   UNL     1     -71.055 -54.633 -30.960  0.00  0.00    +0.000 OA
ATOM     45  C   UNL     1     -71.823 -55.298 -31.642  0.00  0.00    +0.000 C 
BRANCH  45  46
ATOM     46  C   UNL     1     -71.805 -55.187 -33.068  0.00  0.00    +0.000 C 
ATOM     47  C   UNL     1     -71.796 -55.091 -34.262  0.00  0.00    +0.000 C 
ATOM     48  C   UNL     1     -71.773 -54.979 -35.788  0.00  0.00    +0.000 C 
ENDBRANCH  45  46
ENDBRANCH  43  45
ENDBRANCH  15  43
TORSDOF 10
ENDMDL
MODEL 6
REMARK VINA RESULT:      -5.6     12.638     18.737
REMARK  Name = Thapsigargin.pdbqt.pdb
REMARK  10 active torsions:
REMARK  status: ('A' for Active; 'I' for Inactive)
REMARK    1  A    between atoms: O_2  and  C_24
REMARK    2  A    between atoms: C_17  and  O_43
REMARK    3  A    between atoms: C_19  and  C_24
REMARK    4  A    between atoms: C_19  and  O_47
REMARK    5  A    between atoms: C_27  and  C_35
REMARK    6  A    between atoms: C_35  and  C_36
REMARK    7  A    between atoms: C_37  and  C_38
REMARK    8  A    between atoms: C_39  and  C_40
REMARK    9  A    between atoms: C_42  and  O_43
REMARK   10  A    between atoms: C_42  and  C_44
REMARK                            x       y       z     vdW  Elec       q    Type
REMARK                         _______ _______ _______ _____ _____    ______ ____
ROOT
ATOM      1  O   UNL     1     -57.732 -45.514 -42.848  0.00  0.00    +0.000 OA
ATOM      2  O   UNL     1     -62.029 -44.829 -38.633  0.00  0.00    +0.000 OA
ATOM      3  O   UNL     1     -63.223 -46.149 -40.470  0.00  0.00    +0.000 OA
ATOM      4  O   UNL     1     -62.044 -42.581 -42.290  0.00  0.00    +0.000 OA
ATOM      5  O   UNL     1     -55.926 -46.617 -43.712  0.00  0.00    +0.000 OA
ATOM      6  O   UNL     1     -62.506 -47.048 -39.549  0.00  0.00    +0.000 OA
ATOM      7  O   UNL     1     -65.426 -45.094 -40.637  0.00  0.00    +0.000 OA
ATOM      8  O   UNL     1     -61.196 -43.525 -44.433  0.00  0.00    +0.000 OA
ATOM      9  C   UNL     1     -59.944 -44.148 -39.914  0.00  0.00    +0.000 C 
ATOM     10  C   UNL     1     -57.510 -46.176 -40.632  0.00  0.00    +0.000 C 
ATOM     11  C   UNL     1     -58.232 -45.359 -41.562  0.00  0.00    +0.000 C 
ATOM     12  C   UNL     1     -59.551 -44.711 -38.590  0.00  0.00    +0.000 C 
ATOM     13  C   UNL     1     -59.235 -44.510 -41.251  0.00  0.00    +0.000 C 
ATOM     14  C   UNL     1     -57.779 -46.042 -39.375  0.00  0.00    +0.000 C 
ATOM     15  C   UNL     1     -58.490 -45.483 -38.291  0.00  0.00    +0.000 C 
ATOM     16  C   UNL     1     -60.732 -42.979 -40.235  0.00  0.00    +0.000 C 
ATOM     17  C   UNL     1     -56.475 -46.940 -41.351  0.00  0.00    +0.000 C 
ATOM     18  C   UNL     1     -60.842 -42.872 -41.636  0.00  0.00    +0.000 C 
ATOM     19  C   UNL     1     -59.898 -43.637 -42.226  0.00  0.00    +0.000 C 
ATOM     20  C   UNL     1     -60.779 -45.190 -39.253  0.00  0.00    +0.000 C 
ATOM     21  C   UNL     1     -56.661 -46.373 -42.760  0.00  0.00    +0.000 C 
ATOM     22  C   UNL     1     -60.213 -43.797 -43.582  0.00  0.00    +0.000 C 
ATOM     23  C   UNL     1     -61.701 -46.224 -38.661  0.00  0.00    +0.000 C 
ATOM     24  C   UNL     1     -64.553 -46.007 -40.059  0.00  0.00    +0.000 C 
ATOM     25  C   UNL     1     -62.283 -43.235 -43.555  0.00  0.00    +0.000 C 
ATOM     26  C   UNL     1     -61.508 -46.825 -37.262  0.00  0.00    +0.000 C 
ATOM     27  C   UNL     1     -63.486 -43.800 -43.783  0.00  0.00    +0.000 C 
ATOM     28  C   UNL     1     -63.788 -44.539 -45.068  0.00  0.00    +0.000 C 
ATOM     29  C   UNL     1     -64.365 -44.072 -42.696  0.00  0.00    +0.000 C 
ATOM     30  C   UNL     1     -64.911 -44.517 -41.722  0.00  0.00    +0.000 C 
ENDROOT
BRANCH  17  31
ATOM     31  O   UNL     1     -55.190 -46.678 -40.812  0.00  0.00    +0.000 OA
ATOM     32  H   UNL     1     -55.350 -46.290 -39.932  0.00  0.00    +0.000 HD
ENDBRANCH  17  31
BRANCH  17  33
ATOM     33  C   UNL     1     -56.755 -48.386 -41.288  0.00  0.00    +0.000 C 
BRANCH  33  34
ATOM     34  O   UNL     1     -57.027 -49.690 -41.247  0.00  0.00    +0.000 OA
ATOM     35  H   UNL     1     -56.237 -50.220 -41.465  0.00  0.00    +0.000 HD
ENDBRANCH  33  34
ENDBRANCH  17  33
BRANCH  24  36
ATOM     36  C   UNL     1     -64.997 -46.589 -38.986  0.00  0.00    +0.000 C 
BRANCH  36  37
ATOM     37  C   UNL     1     -65.507 -47.235 -37.693  0.00  0.00    +0.000 C 
ATOM     38  C   UNL     1     -65.898 -47.710 -36.663  0.00  0.00    +0.000 C 
BRANCH  38  39
ATOM     39  C   UNL     1     -66.394 -48.292 -35.335  0.00  0.00    +0.000 C 
ATOM     40  C   UNL     1     -66.768 -48.748 -34.290  0.00  0.00    +0.000 C 
BRANCH  40  41
ATOM     41  C   UNL     1     -67.239 -49.326 -32.952  0.00  0.00    +0.000 C 
ATOM     42  C   UNL     1     -67.648 -49.831 -31.789  0.00  0.00    +0.000 C 
ENDBRANCH  40  41
ENDBRANCH  38  39
ENDBRANCH  36  37
ENDBRANCH  24  36
BRANCH  15  43
ATOM     43  O   UNL     1     -57.952 -45.490 -37.000  0.00  0.00    +0.000 OA
BRANCH  43  45
ATOM     44  O   UNL     1     -57.857 -47.803 -36.742  0.00  0.00    +0.000 OA
ATOM     45  C   UNL     1     -58.106 -46.676 -36.336  0.00  0.00    +0.000 C 
BRANCH  45  46
ATOM     46  C   UNL     1     -58.631 -46.481 -35.019  0.00  0.00    +0.000 C 
ATOM     47  C   UNL     1     -59.076 -46.314 -33.921  0.00  0.00    +0.000 C 
ATOM     48  C   UNL     1     -59.631 -46.105 -32.510  0.00  0.00    +0.000 C 
ENDBRANCH  45  46
ENDBRANCH  43  45
ENDBRANCH  15  43
TORSDOF 10
ENDMDL
MODEL 7
REMARK VINA RESULT:      -5.5     24.294     29.717
REMARK  Name = Thapsigargin.pdbqt.pdb
REMARK  10 active torsions:
REMARK  status: ('A' for Active; 'I' for Inactive)
REMARK    1  A    between atoms: O_2  and  C_24
REMARK    2  A    between atoms: C_17  and  O_43
REMARK    3  A    between atoms: C_19  and  C_24
REMARK    4  A    between atoms: C_19  and  O_47
REMARK    5  A    between atoms: C_27  and  C_35
REMARK    6  A    between atoms: C_35  and  C_36
REMARK    7  A    between atoms: C_37  and  C_38
REMARK    8  A    between atoms: C_39  and  C_40
REMARK    9  A    between atoms: C_42  and  O_43
REMARK   10  A    between atoms: C_42  and  C_44
REMARK                            x       y       z     vdW  Elec       q    Type
REMARK                         _______ _______ _______ _____ _____    ______ ____
ROOT
ATOM      1  O   UNL     1     -70.245 -61.802 -32.622  0.00  0.00    +0.000 OA
ATOM      2  O   UNL     1     -69.491 -56.075 -34.450  0.00  0.00    +0.000 OA
ATOM      3  O   UNL     1     -70.435 -57.229 -36.529  0.00  0.00    +0.000 OA
ATOM      4  O   UNL     1     -66.866 -59.232 -35.702  0.00  0.00    +0.000 OA
ATOM      5  O   UNL     1     -71.467 -63.435 -31.589  0.00  0.00    +0.000 OA
ATOM      6  O   UNL     1     -71.515 -56.769 -35.638  0.00  0.00    +0.000 OA
ATOM      7  O   UNL     1     -69.095 -56.337 -38.374  0.00  0.00    +0.000 OA
ATOM      8  O   UNL     1     -67.666 -61.565 -36.051  0.00  0.00    +0.000 OA
ATOM      9  C   UNL     1     -68.944 -58.130 -33.061  0.00  0.00    +0.000 C 
ATOM     10  C   UNL     1     -71.173 -59.956 -31.561  0.00  0.00    +0.000 C 
ATOM     11  C   UNL     1     -70.172 -60.423 -32.473  0.00  0.00    +0.000 C 
ATOM     12  C   UNL     1     -69.696 -57.152 -32.224  0.00  0.00    +0.000 C 
ATOM     13  C   UNL     1     -69.241 -59.657 -33.082  0.00  0.00    +0.000 C 
ATOM     14  C   UNL     1     -71.147 -58.708 -31.223  0.00  0.00    +0.000 C 
ATOM     15  C   UNL     1     -70.626 -57.398 -31.282  0.00  0.00    +0.000 C 
ATOM     16  C   UNL     1     -67.655 -58.011 -33.706  0.00  0.00    +0.000 C 
ATOM     17  C   UNL     1     -71.978 -61.096 -31.088  0.00  0.00    +0.000 C 
ATOM     18  C   UNL     1     -67.380 -59.205 -34.402  0.00  0.00    +0.000 C 
ATOM     19  C   UNL     1     -68.188 -60.189 -33.953  0.00  0.00    +0.000 C 
ATOM     20  C   UNL     1     -69.938 -57.207 -33.678  0.00  0.00    +0.000 C 
ATOM     21  C   UNL     1     -71.238 -62.244 -31.779  0.00  0.00    +0.000 C 
ATOM     22  C   UNL     1     -68.154 -61.262 -34.854  0.00  0.00    +0.000 C 
ATOM     23  C   UNL     1     -70.905 -56.308 -34.402  0.00  0.00    +0.000 C 
ATOM     24  C   UNL     1     -70.171 -56.255 -37.499  0.00  0.00    +0.000 C 
ATOM     25  C   UNL     1     -67.339 -60.279 -36.577  0.00  0.00    +0.000 C 
ATOM     26  C   UNL     1     -71.678 -55.174 -33.714  0.00  0.00    +0.000 C 
ATOM     27  C   UNL     1     -67.717 -59.962 -37.833  0.00  0.00    +0.000 C 
ATOM     28  C   UNL     1     -68.263 -61.003 -38.786  0.00  0.00    +0.000 C 
ATOM     29  C   UNL     1     -67.994 -58.608 -38.175  0.00  0.00    +0.000 C 
ATOM     30  C   UNL     1     -68.471 -57.512 -38.302  0.00  0.00    +0.000 C 
ENDROOT
BRANCH  17  31
ATOM     31  O   UNL     1     -71.944 -61.186 -29.674  0.00  0.00    +0.000 OA
ATOM     32  H   UNL     1     -72.185 -60.298 -29.350  0.00  0.00    +0.000 HD
ENDBRANCH  17  31
BRANCH  17  33
ATOM     33  C   UNL     1     -73.375 -60.974 -31.545  0.00  0.00    +0.000 C 
BRANCH  33  34
ATOM     34  O   UNL     1     -74.642 -60.853 -31.937  0.00  0.00    +0.000 OA
ATOM     35  H   UNL     1     -74.856 -61.498 -32.638  0.00  0.00    +0.000 HD
ENDBRANCH  33  34
ENDBRANCH  17  33
BRANCH  24  36
ATOM     36  C   UNL     1     -70.808 -55.123 -37.514  0.00  0.00    +0.000 C 
BRANCH  36  37
ATOM     37  C   UNL     1     -71.519 -53.766 -37.509  0.00  0.00    +0.000 C 
ATOM     38  C   UNL     1     -72.049 -52.689 -37.486  0.00  0.00    +0.000 C 
BRANCH  38  39
ATOM     39  C   UNL     1     -72.703 -51.304 -37.444  0.00  0.00    +0.000 C 
ATOM     40  C   UNL     1     -73.207 -50.216 -37.399  0.00  0.00    +0.000 C 
BRANCH  40  41
ATOM     41  C   UNL     1     -73.843 -48.824 -37.338  0.00  0.00    +0.000 C 
ATOM     42  C   UNL     1     -74.396 -47.613 -37.281  0.00  0.00    +0.000 C 
ENDBRANCH  40  41
ENDBRANCH  38  39
ENDBRANCH  36  37
ENDBRANCH  24  36
BRANCH  15  43
ATOM     43  O   UNL     1     -70.845 -56.490 -30.240  0.00  0.00    +0.000 OA
BRANCH  43  45
ATOM     44  O   UNL     1     -73.149 -56.481 -29.898  0.00  0.00    +0.000 OA
ATOM     45  C   UNL     1     -72.002 -56.709 -29.542  0.00  0.00    +0.000 C 
BRANCH  45  46
ATOM     46  C   UNL     1     -71.741 -57.266 -28.250  0.00  0.00    +0.000 C 
ATOM     47  C   UNL     1     -71.529 -57.730 -27.167  0.00  0.00    +0.000 C 
ATOM     48  C   UNL     1     -71.243 -58.326 -25.787  0.00  0.00    +0.000 C 
ENDBRANCH  45  46
ENDBRANCH  43  45
ENDBRANCH  15  43
TORSDOF 10
ENDMDL
MODEL 8
REMARK VINA RESULT:      -5.4     25.711     31.376
REMARK  Name = Thapsigargin.pdbqt.pdb
REMARK  10 active torsions:
REMARK  status: ('A' for Active; 'I' for Inactive)
REMARK    1  A    between atoms: O_2  and  C_24
REMARK    2  A    between atoms: C_17  and  O_43
REMARK    3  A    between atoms: C_19  and  C_24
REMARK    4  A    between atoms: C_19  and  O_47
REMARK    5  A    between atoms: C_27  and  C_35
REMARK    6  A    between atoms: C_35  and  C_36
REMARK    7  A    between atoms: C_37  and  C_38
REMARK    8  A    between atoms: C_39  and  C_40
REMARK    9  A    between atoms: C_42  and  O_43
REMARK   10  A    between atoms: C_42  and  C_44
REMARK                            x       y       z     vdW  Elec       q    Type
REMARK                         _______ _______ _______ _____ _____    ______ ____
ROOT
ATOM      1  O   UNL     1     -73.443 -53.450 -34.232  0.00  0.00    +0.000 OA
ATOM      2  O   UNL     1     -71.606 -55.131 -28.709  0.00  0.00    +0.000 OA
ATOM      3  O   UNL     1     -74.155 -55.197 -28.517  0.00  0.00    +0.000 OA
ATOM      4  O   UNL     1     -73.241 -51.238 -29.480  0.00  0.00    +0.000 OA
ATOM      5  O   UNL     1     -73.944 -53.923 -36.411  0.00  0.00    +0.000 OA
ATOM      6  O   UNL     1     -73.629 -56.467 -29.045  0.00  0.00    +0.000 OA
ATOM      7  O   UNL     1     -74.623 -54.187 -26.336  0.00  0.00    +0.000 OA
ATOM      8  O   UNL     1     -75.014 -50.856 -31.186  0.00  0.00    +0.000 OA
ATOM      9  C   UNL     1     -71.397 -53.893 -30.917  0.00  0.00    +0.000 C 
ATOM     10  C   UNL     1     -72.009 -55.229 -33.814  0.00  0.00    +0.000 C 
ATOM     11  C   UNL     1     -72.586 -54.022 -33.301  0.00  0.00    +0.000 C 
ATOM     12  C   UNL     1     -70.523 -55.100 -30.941  0.00  0.00    +0.000 C 
ATOM     13  C   UNL     1     -72.316 -53.468 -32.099  0.00  0.00    +0.000 C 
ATOM     14  C   UNL     1     -71.092 -55.807 -33.110  0.00  0.00    +0.000 C 
ATOM     15  C   UNL     1     -70.266 -55.927 -31.972  0.00  0.00    +0.000 C 
ATOM     16  C   UNL     1     -71.358 -52.728 -30.062  0.00  0.00    +0.000 C 
ATOM     17  C   UNL     1     -72.533 -55.487 -35.167  0.00  0.00    +0.000 C 
ATOM     18  C   UNL     1     -72.413 -51.863 -30.418  0.00  0.00    +0.000 C 
ATOM     19  C   UNL     1     -72.875 -52.191 -31.644  0.00  0.00    +0.000 C 
ATOM     20  C   UNL     1     -71.762 -55.112 -30.142  0.00  0.00    +0.000 C 
ATOM     21  C   UNL     1     -73.388 -54.233 -35.361  0.00  0.00    +0.000 C 
ATOM     22  C   UNL     1     -74.113 -51.570 -31.852  0.00  0.00    +0.000 C 
ATOM     23  C   UNL     1     -72.211 -56.285 -29.309  0.00  0.00    +0.000 C 
ATOM     24  C   UNL     1     -74.302 -55.282 -27.129  0.00  0.00    +0.000 C 
ATOM     25  C   UNL     1     -74.633 -51.081 -29.830  0.00  0.00    +0.000 C 
ATOM     26  C   UNL     1     -71.377 -57.561 -29.132  0.00  0.00    +0.000 C 
ATOM     27  C   UNL     1     -75.577 -51.405 -28.922  0.00  0.00    +0.000 C 
ATOM     28  C   UNL     1     -77.052 -51.306 -29.238  0.00  0.00    +0.000 C 
ATOM     29  C   UNL     1     -75.241 -52.216 -27.801  0.00  0.00    +0.000 C 
ATOM     30  C   UNL     1     -74.946 -53.116 -27.060  0.00  0.00    +0.000 C 
ENDROOT
BRANCH  17  31
ATOM     31  O   UNL     1     -71.476 -55.588 -36.106  0.00  0.00    +0.000 OA
ATOM     32  H   UNL     1     -71.227 -56.531 -36.120  0.00  0.00    +0.000 HD
ENDBRANCH  17  31
BRANCH  17  33
ATOM     33  C   UNL     1     -73.337 -56.722 -35.189  0.00  0.00    +0.000 C 
BRANCH  33  34
ATOM     34  O   UNL     1     -74.053 -57.845 -35.229  0.00  0.00    +0.000 OA
ATOM     35  H   UNL     1     -74.292 -58.142 -34.331  0.00  0.00    +0.000 HD
ENDBRANCH  33  34
ENDBRANCH  17  33
BRANCH  24  36
ATOM     36  C   UNL     1     -73.961 -56.353 -26.476  0.00  0.00    +0.000 C 
BRANCH  36  37
ATOM     37  C   UNL     1     -73.525 -57.588 -25.680  0.00  0.00    +0.000 C 
ATOM     38  C   UNL     1     -73.151 -58.540 -25.053  0.00  0.00    +0.000 C 
BRANCH  38  39
ATOM     39  C   UNL     1     -72.649 -59.743 -24.248  0.00  0.00    +0.000 C 
ATOM     40  C   UNL     1     -72.255 -60.677 -23.605  0.00  0.00    +0.000 C 
BRANCH  40  41
ATOM     41  C   UNL     1     -71.755 -61.864 -22.777  0.00  0.00    +0.000 C 
ATOM     42  C   UNL     1     -71.318 -62.899 -22.059  0.00  0.00    +0.000 C 
ENDBRANCH  40  41
ENDBRANCH  38  39
ENDBRANCH  36  37
ENDBRANCH  24  36
BRANCH  15  43
ATOM     43  O   UNL     1     -69.072 -56.655 -32.024  0.00  0.00    +0.000 OA
BRANCH  43  45
ATOM     44  O   UNL     1     -69.484 -58.899 -32.498  0.00  0.00    +0.000 OA
ATOM     45  C   UNL     1     -69.132 -57.771 -32.814  0.00  0.00    +0.000 C 
BRANCH  45  46
ATOM     46  C   UNL     1     -68.709 -57.494 -34.153  0.00  0.00    +0.000 C 
ATOM     47  C   UNL     1     -68.356 -57.256 -35.272  0.00  0.00    +0.000 C 
ATOM     48  C   UNL     1     -67.905 -56.967 -36.705  0.00  0.00    +0.000 C 
ENDBRANCH  45  46
ENDBRANCH  43  45
ENDBRANCH  15  43
TORSDOF 10
ENDMDL
MODEL 9
REMARK VINA RESULT:      -5.3     23.815     29.358
REMARK  Name = Thapsigargin.pdbqt.pdb
REMARK  10 active torsions:
REMARK  status: ('A' for Active; 'I' for Inactive)
REMARK    1  A    between atoms: O_2  and  C_24
REMARK    2  A    between atoms: C_17  and  O_43
REMARK    3  A    between atoms: C_19  and  C_24
REMARK    4  A    between atoms: C_19  and  O_47
REMARK    5  A    between atoms: C_27  and  C_35
REMARK    6  A    between atoms: C_35  and  C_36
REMARK    7  A    between atoms: C_37  and  C_38
REMARK    8  A    between atoms: C_39  and  C_40
REMARK    9  A    between atoms: C_42  and  O_43
REMARK   10  A    between atoms: C_42  and  C_44
REMARK                            x       y       z     vdW  Elec       q    Type
REMARK                         _______ _______ _______ _____ _____    ______ ____
ROOT
ATOM      1  O   UNL     1     -71.928 -54.632 -34.619  0.00  0.00    +0.000 OA
ATOM      2  O   UNL     1     -69.351 -59.784 -32.744  0.00  0.00    +0.000 OA
ATOM      3  O   UNL     1     -71.798 -60.074 -32.056  0.00  0.00    +0.000 OA
ATOM      4  O   UNL     1     -70.491 -56.678 -30.009  0.00  0.00    +0.000 OA
ATOM      5  O   UNL     1     -72.900 -53.348 -36.242  0.00  0.00    +0.000 OA
ATOM      6  O   UNL     1     -71.581 -60.509 -33.447  0.00  0.00    +0.000 OA
ATOM      7  O   UNL     1     -71.682 -61.040 -29.809  0.00  0.00    +0.000 OA
ATOM      8  O   UNL     1     -72.478 -55.228 -30.399  0.00  0.00    +0.000 OA
ATOM      9  C   UNL     1     -69.381 -57.307 -33.307  0.00  0.00    +0.000 C 
ATOM     10  C   UNL     1     -70.729 -56.071 -35.992  0.00  0.00    +0.000 C 
ATOM     11  C   UNL     1     -71.007 -55.671 -34.645  0.00  0.00    +0.000 C 
ATOM     12  C   UNL     1     -68.721 -58.060 -34.412  0.00  0.00    +0.000 C 
ATOM     13  C   UNL     1     -70.432 -56.183 -33.536  0.00  0.00    +0.000 C 
ATOM     14  C   UNL     1     -69.794 -56.943 -36.182  0.00  0.00    +0.000 C 
ATOM     15  C   UNL     1     -68.794 -57.836 -35.738  0.00  0.00    +0.000 C 
ATOM     16  C   UNL     1     -69.003 -57.163 -31.920  0.00  0.00    +0.000 C 
ATOM     17  C   UNL     1     -71.534 -55.260 -36.923  0.00  0.00    +0.000 C 
ATOM     18  C   UNL     1     -69.962 -56.364 -31.265  0.00  0.00    +0.000 C 
ATOM     19  C   UNL     1     -70.693 -55.691 -32.178  0.00  0.00    +0.000 C 
ATOM     20  C   UNL     1     -69.773 -58.713 -33.611  0.00  0.00    +0.000 C 
ATOM     21  C   UNL     1     -72.209 -54.313 -35.928  0.00  0.00    +0.000 C 
ATOM     22  C   UNL     1     -71.839 -55.173 -31.562  0.00  0.00    +0.000 C 
ATOM     23  C   UNL     1     -70.228 -60.133 -33.824  0.00  0.00    +0.000 C 
ATOM     24  C   UNL     1     -71.688 -61.170 -31.192  0.00  0.00    +0.000 C 
ATOM     25  C   UNL     1     -71.884 -56.370 -29.784  0.00  0.00    +0.000 C 
ATOM     26  C   UNL     1     -69.580 -61.082 -34.840  0.00  0.00    +0.000 C 
ATOM     27  C   UNL     1     -72.676 -57.300 -29.211  0.00  0.00    +0.000 C 
ATOM     28  C   UNL     1     -74.152 -57.059 -28.987  0.00  0.00    +0.000 C 
ATOM     29  C   UNL     1     -72.260 -58.661 -29.164  0.00  0.00    +0.000 C 
ATOM     30  C   UNL     1     -71.971 -59.801 -29.415  0.00  0.00    +0.000 C 
ENDROOT
BRANCH  17  31
ATOM     31  O   UNL     1     -70.702 -54.586 -37.852  0.00  0.00    +0.000 OA
ATOM     32  H   UNL     1     -70.110 -55.270 -38.217  0.00  0.00    +0.000 HD
ENDBRANCH  17  31
BRANCH  17  33
ATOM     33  C   UNL     1     -72.506 -56.101 -37.643  0.00  0.00    +0.000 C 
BRANCH  33  34
ATOM     34  O   UNL     1     -73.397 -56.865 -38.273  0.00  0.00    +0.000 OA
ATOM     35  H   UNL     1     -73.627 -57.649 -37.740  0.00  0.00    +0.000 HD
ENDBRANCH  33  34
ENDBRANCH  17  33
BRANCH  24  36
ATOM     36  C   UNL     1     -71.397 -62.356 -31.635  0.00  0.00    +0.000 C 
BRANCH  36  37
ATOM     37  C   UNL     1     -71.005 -63.747 -32.144  0.00  0.00    +0.000 C 
ATOM     38  C   UNL     1     -70.713 -64.828 -32.575  0.00  0.00    +0.000 C 
BRANCH  38  39
ATOM     39  C   UNL     1     -70.349 -66.201 -33.151  0.00  0.00    +0.000 C 
ATOM     40  C   UNL     1     -70.067 -67.272 -33.615  0.00  0.00    +0.000 C 
BRANCH  40  41
ATOM     41  C   UNL     1     -69.706 -68.634 -34.215  0.00  0.00    +0.000 C 
ATOM     42  C   UNL     1     -69.390 -69.818 -34.738  0.00  0.00    +0.000 C 
ENDBRANCH  40  41
ENDBRANCH  38  39
ENDBRANCH  36  37
ENDBRANCH  24  36
BRANCH  15  43
ATOM     43  O   UNL     1     -67.757 -58.234 -36.589  0.00  0.00    +0.000 OA
BRANCH  43  45
ATOM     44  O   UNL     1     -68.534 -59.014 -38.642  0.00  0.00    +0.000 OA
ATOM     45  C   UNL     1     -68.062 -58.147 -37.920  0.00  0.00    +0.000 C 
BRANCH  45  46
ATOM     46  C   UNL     1     -67.751 -56.854 -38.449  0.00  0.00    +0.000 C 
ATOM     47  C   UNL     1     -67.496 -55.774 -38.898  0.00  0.00    +0.000 C 
ATOM     48  C   UNL     1     -67.156 -54.392 -39.461  0.00  0.00    +0.000 C 
ENDBRANCH  45  46
ENDBRANCH  43  45
ENDBRANCH  15  43
TORSDOF 10
ENDMDL
