MODEL 1
REMARK VINA RESULT:      -5.0      0.000      0.000
REMARK  Name = Thioguanosine.pdbqt.pdb
REMARK  5 active torsions:
REMARK  status: ('A' for Active; 'I' for Inactive)
REMARK    1  A    between atoms: N_2  and  C1*_12
REMARK    2  A    between atoms: C4*_14  and  C5*_17
REMARK    3  A    between atoms: C3*_15  and  O3*_20
REMARK    4  A    between atoms: C2*_16  and  O2*_22
REMARK    5  A    between atoms: C5*_17  and  O5*_18
REMARK                            x       y       z     vdW  Elec       q    Type
REMARK                         _______ _______ _______ _____ _____    ______ ____
ROOT
ATOM      1  S   UNL     1     -72.694 -57.953 -28.700  0.00  0.00    +0.000 S 
ATOM      2  N   UNL     1     -69.736 -58.539 -32.560  0.00  0.00    +0.000 N 
ATOM      3  N   UNL     1     -69.517 -56.377 -31.404  0.00  0.00    +0.000 N 
ATOM      4  N   UNL     1     -71.323 -59.396 -31.192  0.00  0.00    +0.000 NA
ATOM      5  N   UNL     1     -70.962 -56.024 -29.549  0.00  0.00    +0.000 NA
ATOM      6  C   UNL     1     -70.027 -57.607 -31.597  0.00  0.00    +0.000 A 
ATOM      7  C   UNL     1     -70.550 -59.613 -32.238  0.00  0.00    +0.000 A 
ATOM      8  C   UNL     1     -71.003 -58.124 -30.784  0.00  0.00    +0.000 A 
ATOM      9  C   UNL     1     -71.513 -57.299 -29.686  0.00  0.00    +0.000 A 
ATOM     10  C   UNL     1     -70.029 -55.640 -30.371  0.00  0.00    +0.000 A 
ATOM     11  H   UNL     1     -68.821 -55.965 -32.021  0.00  0.00    +0.000 HD
ATOM     12  N   UNL     1     -69.474 -54.410 -30.255  0.00  0.00    +0.000 N 
ATOM     13  H   UNL     1     -68.463 -54.403 -30.298  0.00  0.00    +0.000 HD
ATOM     14  H   UNL     1     -69.799 -53.951 -29.407  0.00  0.00    +0.000 HD
ENDROOT
BRANCH   2  15
ATOM     15  C1* UNL     1     -68.871 -58.487 -33.636  0.00  0.00    +0.000 A 
ATOM     16  O4* UNL     1     -68.896 -57.420 -34.565  0.00  0.00    +0.000 OA
ATOM     17  C4* UNL     1     -67.921 -57.641 -35.552  0.00  0.00    +0.000 A 
ATOM     18  C3* UNL     1     -67.249 -58.872 -35.249  0.00  0.00    +0.000 A 
ATOM     19  C2* UNL     1     -67.831 -59.395 -34.052  0.00  0.00    +0.000 A 
BRANCH  18  20
ATOM     20  O3* UNL     1     -66.755 -59.719 -36.205  0.00  0.00    +0.000 OA
ATOM     21  H3* UNL     1     -65.958 -60.186 -35.893  0.00  0.00    +0.000 HD
ENDBRANCH  18  20
BRANCH  19  22
ATOM     22  O2* UNL     1     -67.888 -60.745 -33.834  0.00  0.00    +0.000 OA
ATOM     23  H2* UNL     1     -67.583 -61.216 -34.636  0.00  0.00    +0.000 HD
ENDBRANCH  19  22
BRANCH  17  24
ATOM     24  C5* UNL     1     -67.862 -56.897 -36.745  0.00  0.00    +0.000 C 
BRANCH  24  25
ATOM     25  O5* UNL     1     -67.783 -56.196 -37.871  0.00  0.00    +0.000 OA
ATOM     26  H5* UNL     1     -68.656 -55.842 -38.116  0.00  0.00    +0.000 HD
ENDBRANCH  24  25
ENDBRANCH  17  24
ENDBRANCH   2  15
TORSDOF 5
ENDMDL
MODEL 2
REMARK VINA RESULT:      -4.6     16.455     18.248
REMARK  Name = Thioguanosine.pdbqt.pdb
REMARK  5 active torsions:
REMARK  status: ('A' for Active; 'I' for Inactive)
REMARK    1  A    between atoms: N_2  and  C1*_12
REMARK    2  A    between atoms: C4*_14  and  C5*_17
REMARK    3  A    between atoms: C3*_15  and  O3*_20
REMARK    4  A    between atoms: C2*_16  and  O2*_22
REMARK    5  A    between atoms: C5*_17  and  O5*_18
REMARK                            x       y       z     vdW  Elec       q    Type
REMARK                         _______ _______ _______ _____ _____    ______ ____
ROOT
ATOM      1  S   UNL     1     -63.659 -57.862 -11.150  0.00  0.00    +0.000 S 
ATOM      2  N   UNL     1     -64.068 -55.070 -15.154  0.00  0.00    +0.000 N 
ATOM      3  N   UNL     1     -64.633 -57.444 -15.482  0.00  0.00    +0.000 N 
ATOM      4  N   UNL     1     -63.599 -55.226 -12.945  0.00  0.00    +0.000 NA
ATOM      5  N   UNL     1     -64.409 -58.852 -13.579  0.00  0.00    +0.000 NA
ATOM      6  C   UNL     1     -64.247 -56.373 -14.764  0.00  0.00    +0.000 A 
ATOM      7  C   UNL     1     -63.693 -54.424 -13.987  0.00  0.00    +0.000 A 
ATOM      8  C   UNL     1     -63.941 -56.465 -13.430  0.00  0.00    +0.000 A 
ATOM      9  C   UNL     1     -64.023 -57.774 -12.779  0.00  0.00    +0.000 A 
ATOM     10  C   UNL     1     -64.689 -58.647 -14.833  0.00  0.00    +0.000 A 
ATOM     11  H   UNL     1     -64.826 -57.399 -16.480  0.00  0.00    +0.000 HD
ATOM     12  N   UNL     1     -65.071 -59.675 -15.629  0.00  0.00    +0.000 N 
ATOM     13  H   UNL     1     -65.885 -59.482 -16.197  0.00  0.00    +0.000 HD
ATOM     14  H   UNL     1     -65.212 -60.518 -15.077  0.00  0.00    +0.000 HD
ENDROOT
BRANCH   2  15
ATOM     15  C1* UNL     1     -64.192 -54.473 -16.394  0.00  0.00    +0.000 A 
ATOM     16  O4* UNL     1     -65.301 -53.660 -16.726  0.00  0.00    +0.000 OA
ATOM     17  C4* UNL     1     -65.164 -53.204 -18.047  0.00  0.00    +0.000 A 
ATOM     18  C3* UNL     1     -63.937 -53.728 -18.576  0.00  0.00    +0.000 A 
ATOM     19  C2* UNL     1     -63.325 -54.509 -17.546  0.00  0.00    +0.000 A 
BRANCH  18  20
ATOM     20  O3* UNL     1     -63.762 -54.061 -19.892  0.00  0.00    +0.000 OA
ATOM     21  H3* UNL     1     -64.561 -53.874 -20.419  0.00  0.00    +0.000 HD
ENDBRANCH  18  20
BRANCH  19  22
ATOM     22  O2* UNL     1     -62.543 -55.588 -17.858  0.00  0.00    +0.000 OA
ATOM     23  H2* UNL     1     -63.104 -56.297 -18.233  0.00  0.00    +0.000 HD
ENDBRANCH  19  22
BRANCH  17  24
ATOM     24  C5* UNL     1     -66.212 -52.585 -18.753  0.00  0.00    +0.000 C 
BRANCH  24  25
ATOM     25  O5* UNL     1     -67.215 -52.020 -19.416  0.00  0.00    +0.000 OA
ATOM     26  H5* UNL     1     -66.886 -51.557 -20.207  0.00  0.00    +0.000 HD
ENDBRANCH  24  25
ENDBRANCH  17  24
ENDBRANCH   2  15
TORSDOF 5
ENDMDL
MODEL 3
REMARK VINA RESULT:      -4.6     39.921     42.163
REMARK  Name = Thioguanosine.pdbqt.pdb
REMARK  5 active torsions:
REMARK  status: ('A' for Active; 'I' for Inactive)
REMARK    1  A    between atoms: N_2  and  C1*_12
REMARK    2  A    between atoms: C4*_14  and  C5*_17
REMARK    3  A    between atoms: C3*_15  and  O3*_20
REMARK    4  A    between atoms: C2*_16  and  O2*_22
REMARK    5  A    between atoms: C5*_17  and  O5*_18
REMARK                            x       y       z     vdW  Elec       q    Type
REMARK                         _______ _______ _______ _____ _____    ______ ____
ROOT
ATOM      1  S   UNL     1     -62.779 -66.293 -72.351  0.00  0.00    +0.000 S 
ATOM      2  N   UNL     1     -57.915 -66.118 -72.905  0.00  0.00    +0.000 N 
ATOM      3  N   UNL     1     -58.798 -64.761 -71.050  0.00  0.00    +0.000 N 
ATOM      4  N   UNL     1     -59.910 -66.951 -73.578  0.00  0.00    +0.000 NA
ATOM      5  N   UNL     1     -61.159 -64.776 -70.764  0.00  0.00    +0.000 NA
ATOM      6  C   UNL     1     -58.895 -65.607 -72.092  0.00  0.00    +0.000 A 
ATOM      7  C   UNL     1     -58.607 -66.946 -73.775  0.00  0.00    +0.000 A 
ATOM      8  C   UNL     1     -60.103 -66.099 -72.517  0.00  0.00    +0.000 A 
ATOM      9  C   UNL     1     -61.320 -65.672 -71.824  0.00  0.00    +0.000 A 
ATOM     10  C   UNL     1     -59.962 -64.384 -70.437  0.00  0.00    +0.000 A 
ATOM     11  H   UNL     1     -57.915 -64.358 -70.748  0.00  0.00    +0.000 HD
ATOM     12  N   UNL     1     -59.778 -63.520 -69.410  0.00  0.00    +0.000 N 
ATOM     13  H   UNL     1     -59.048 -63.789 -68.764  0.00  0.00    +0.000 HD
ATOM     14  H   UNL     1     -60.654 -63.365 -68.915  0.00  0.00    +0.000 HD
ENDROOT
BRANCH   2  15
ATOM     15  C1* UNL     1     -56.553 -65.893 -72.928  0.00  0.00    +0.000 A 
ATOM     16  O4* UNL     1     -56.004 -64.602 -72.746  0.00  0.00    +0.000 OA
ATOM     17  C4* UNL     1     -54.604 -64.676 -72.834  0.00  0.00    +0.000 A 
ATOM     18  C3* UNL     1     -54.242 -66.044 -73.070  0.00  0.00    +0.000 A 
ATOM     19  C2* UNL     1     -55.452 -66.806 -73.118  0.00  0.00    +0.000 A 
BRANCH  18  20
ATOM     20  O3* UNL     1     -53.158 -66.422 -73.815  0.00  0.00    +0.000 OA
ATOM     21  H3* UNL     1     -52.483 -66.865 -73.267  0.00  0.00    +0.000 HD
ENDBRANCH  18  20
BRANCH  19  22
ATOM     22  O2* UNL     1     -55.540 -67.930 -73.894  0.00  0.00    +0.000 OA
ATOM     23  H2* UNL     1     -54.645 -68.305 -74.022  0.00  0.00    +0.000 HD
ENDBRANCH  19  22
BRANCH  17  24
ATOM     24  C5* UNL     1     -53.786 -63.536 -72.944  0.00  0.00    +0.000 C 
BRANCH  24  25
ATOM     25  O5* UNL     1     -53.032 -62.448 -73.053  0.00  0.00    +0.000 OA
ATOM     26  H5* UNL     1     -52.192 -62.563 -72.574  0.00  0.00    +0.000 HD
ENDBRANCH  24  25
ENDBRANCH  17  24
ENDBRANCH   2  15
TORSDOF 5
ENDMDL
MODEL 4
REMARK VINA RESULT:      -4.5     33.292     35.333
REMARK  Name = Thioguanosine.pdbqt.pdb
REMARK  5 active torsions:
REMARK  status: ('A' for Active; 'I' for Inactive)
REMARK    1  A    between atoms: N_2  and  C1*_12
REMARK    2  A    between atoms: C4*_14  and  C5*_17
REMARK    3  A    between atoms: C3*_15  and  O3*_20
REMARK    4  A    between atoms: C2*_16  and  O2*_22
REMARK    5  A    between atoms: C5*_17  and  O5*_18
REMARK                            x       y       z     vdW  Elec       q    Type
REMARK                         _______ _______ _______ _____ _____    ______ ____
ROOT
ATOM      1  S   UNL     1     -63.645 -64.272 -69.137  0.00  0.00    +0.000 S 
ATOM      2  N   UNL     1     -67.040 -61.566 -66.867  0.00  0.00    +0.000 N 
ATOM      3  N   UNL     1     -66.444 -60.800 -69.129  0.00  0.00    +0.000 N 
ATOM      4  N   UNL     1     -65.661 -63.362 -66.840  0.00  0.00    +0.000 NA
ATOM      5  N   UNL     1     -64.768 -62.053 -70.259  0.00  0.00    +0.000 NA
ATOM      6  C   UNL     1     -66.368 -61.616 -68.063  0.00  0.00    +0.000 A 
ATOM      7  C   UNL     1     -66.572 -62.675 -66.179  0.00  0.00    +0.000 A 
ATOM      8  C   UNL     1     -65.521 -62.694 -68.031  0.00  0.00    +0.000 A 
ATOM      9  C   UNL     1     -64.662 -62.946 -69.190  0.00  0.00    +0.000 A 
ATOM     10  C   UNL     1     -65.618 -61.070 -70.186  0.00  0.00    +0.000 A 
ATOM     11  H   UNL     1     -67.039 -59.975 -69.152  0.00  0.00    +0.000 HD
ATOM     12  N   UNL     1     -65.744 -60.193 -71.211  0.00  0.00    +0.000 N 
ATOM     13  H   UNL     1     -66.700 -60.002 -71.481  0.00  0.00    +0.000 HD
ATOM     14  H   UNL     1     -65.201 -60.504 -72.013  0.00  0.00    +0.000 HD
ENDROOT
BRANCH   2  15
ATOM     15  C1* UNL     1     -67.957 -60.653 -66.383  0.00  0.00    +0.000 A 
ATOM     16  O4* UNL     1     -69.109 -60.288 -67.120  0.00  0.00    +0.000 OA
ATOM     17  C4* UNL     1     -69.844 -59.338 -66.390  0.00  0.00    +0.000 A 
ATOM     18  C3* UNL     1     -69.155 -59.093 -65.155  0.00  0.00    +0.000 A 
ATOM     19  C2* UNL     1     -67.987 -59.918 -65.143  0.00  0.00    +0.000 A 
BRANCH  18  20
ATOM     20  O3* UNL     1     -69.152 -57.881 -64.519  0.00  0.00    +0.000 OA
ATOM     21  H3* UNL     1     -68.284 -57.687 -64.120  0.00  0.00    +0.000 HD
ENDBRANCH  18  20
BRANCH  19  22
ATOM     22  O2* UNL     1     -66.856 -59.518 -64.485  0.00  0.00    +0.000 OA
ATOM     23  H2* UNL     1     -66.164 -59.291 -65.139  0.00  0.00    +0.000 HD
ENDBRANCH  19  22
BRANCH  17  24
ATOM     24  C5* UNL     1     -70.899 -58.596 -66.951  0.00  0.00    +0.000 C 
BRANCH  24  25
ATOM     25  O5* UNL     1     -71.887 -57.876 -67.472  0.00  0.00    +0.000 OA
ATOM     26  H5* UNL     1     -72.749 -58.287 -67.279  0.00  0.00    +0.000 HD
ENDBRANCH  24  25
ENDBRANCH  17  24
ENDBRANCH   2  15
TORSDOF 5
ENDMDL
MODEL 5
REMARK VINA RESULT:      -4.5     16.333     18.134
REMARK  Name = Thioguanosine.pdbqt.pdb
REMARK  5 active torsions:
REMARK  status: ('A' for Active; 'I' for Inactive)
REMARK    1  A    between atoms: N_2  and  C1*_12
REMARK    2  A    between atoms: C4*_14  and  C5*_17
REMARK    3  A    between atoms: C3*_15  and  O3*_20
REMARK    4  A    between atoms: C2*_16  and  O2*_22
REMARK    5  A    between atoms: C5*_17  and  O5*_18
REMARK                            x       y       z     vdW  Elec       q    Type
REMARK                         _______ _______ _______ _____ _____    ______ ____
ROOT
ATOM      1  S   UNL     1     -63.429 -57.806 -11.373  0.00  0.00    +0.000 S 
ATOM      2  N   UNL     1     -64.258 -55.108 -15.376  0.00  0.00    +0.000 N 
ATOM      3  N   UNL     1     -64.711 -57.514 -15.634  0.00  0.00    +0.000 N 
ATOM      4  N   UNL     1     -63.635 -55.201 -13.202  0.00  0.00    +0.000 NA
ATOM      5  N   UNL     1     -64.283 -58.876 -13.732  0.00  0.00    +0.000 NA
ATOM      6  C   UNL     1     -64.337 -56.412 -14.958  0.00  0.00    +0.000 A 
ATOM      7  C   UNL     1     -63.842 -54.423 -14.245  0.00  0.00    +0.000 A 
ATOM      8  C   UNL     1     -63.939 -56.464 -13.646  0.00  0.00    +0.000 A 
ATOM      9  C   UNL     1     -63.906 -57.765 -12.974  0.00  0.00    +0.000 A 
ATOM     10  C   UNL     1     -64.657 -58.707 -14.967  0.00  0.00    +0.000 A 
ATOM     11  H   UNL     1     -64.972 -57.496 -16.617  0.00  0.00    +0.000 HD
ATOM     12  N   UNL     1     -65.034 -59.767 -15.722  0.00  0.00    +0.000 N 
ATOM     13  H   UNL     1     -65.893 -59.628 -16.237  0.00  0.00    +0.000 HD
ATOM     14  H   UNL     1     -65.091 -60.608 -15.151  0.00  0.00    +0.000 HD
ENDROOT
BRANCH   2  15
ATOM     15  C1* UNL     1     -64.496 -54.539 -16.612  0.00  0.00    +0.000 A 
ATOM     16  O4* UNL     1     -63.603 -54.707 -17.698  0.00  0.00    +0.000 OA
ATOM     17  C4* UNL     1     -64.093 -54.009 -18.814  0.00  0.00    +0.000 A 
ATOM     18  C3* UNL     1     -65.331 -53.384 -18.442  0.00  0.00    +0.000 A 
ATOM     19  C2* UNL     1     -65.589 -53.721 -17.077  0.00  0.00    +0.000 A 
BRANCH  18  20
ATOM     20  O3* UNL     1     -65.755 -52.186 -18.951  0.00  0.00    +0.000 OA
ATOM     21  H3* UNL     1     -65.127 -51.832 -19.607  0.00  0.00    +0.000 HD
ENDBRANCH  18  20
BRANCH  19  22
ATOM     22  O2* UNL     1     -66.277 -52.862 -16.263  0.00  0.00    +0.000 OA
ATOM     23  H2* UNL     1     -65.729 -52.069 -16.093  0.00  0.00    +0.000 HD
ENDBRANCH  19  22
BRANCH  17  24
ATOM     24  C5* UNL     1     -63.320 -53.773 -19.965  0.00  0.00    +0.000 C 
BRANCH  24  25
ATOM     25  O5* UNL     1     -62.574 -53.540 -21.040  0.00  0.00    +0.000 OA
ATOM     26  H5* UNL     1     -63.130 -53.263 -21.790  0.00  0.00    +0.000 HD
ENDBRANCH  24  25
ENDBRANCH  17  24
ENDBRANCH   2  15
TORSDOF 5
ENDMDL
MODEL 6
REMARK VINA RESULT:      -4.5     23.732     26.368
REMARK  Name = Thioguanosine.pdbqt.pdb
REMARK  5 active torsions:
REMARK  status: ('A' for Active; 'I' for Inactive)
REMARK    1  A    between atoms: N_2  and  C1*_12
REMARK    2  A    between atoms: C4*_14  and  C5*_17
REMARK    3  A    between atoms: C3*_15  and  O3*_20
REMARK    4  A    between atoms: C2*_16  and  O2*_22
REMARK    5  A    between atoms: C5*_17  and  O5*_18
REMARK                            x       y       z     vdW  Elec       q    Type
REMARK                         _______ _______ _______ _____ _____    ______ ____
ROOT
ATOM      1  S   UNL     1     -64.111 -46.652 -50.680  0.00  0.00    +0.000 S 
ATOM      2  N   UNL     1     -63.887 -46.305 -55.561  0.00  0.00    +0.000 N 
ATOM      3  N   UNL     1     -64.084 -48.600 -54.692  0.00  0.00    +0.000 N 
ATOM      4  N   UNL     1     -63.935 -45.270 -53.548  0.00  0.00    +0.000 NA
ATOM      5  N   UNL     1     -64.152 -48.828 -52.326  0.00  0.00    +0.000 NA
ATOM      6  C   UNL     1     -64.002 -47.262 -54.584  0.00  0.00    +0.000 A 
ATOM      7  C   UNL     1     -63.873 -45.112 -54.856  0.00  0.00    +0.000 A 
ATOM      8  C   UNL     1     -64.009 -46.629 -53.367  0.00  0.00    +0.000 A 
ATOM      9  C   UNL     1     -64.091 -47.443 -52.153  0.00  0.00    +0.000 A 
ATOM     10  C   UNL     1     -64.152 -49.320 -53.530  0.00  0.00    +0.000 A 
ATOM     11  H   UNL     1     -64.041 -49.085 -55.585  0.00  0.00    +0.000 HD
ATOM     12  N   UNL     1     -64.216 -50.659 -53.726  0.00  0.00    +0.000 N 
ATOM     13  H   UNL     1     -64.891 -50.947 -54.422  0.00  0.00    +0.000 HD
ATOM     14  H   UNL     1     -64.385 -51.139 -52.845  0.00  0.00    +0.000 HD
ENDROOT
BRANCH   2  15
ATOM     15  C1* UNL     1     -63.784 -46.423 -56.934  0.00  0.00    +0.000 A 
ATOM     16  O4* UNL     1     -62.537 -46.610 -57.576  0.00  0.00    +0.000 OA
ATOM     17  C4* UNL     1     -62.737 -46.681 -58.965  0.00  0.00    +0.000 A 
ATOM     18  C3* UNL     1     -64.143 -46.546 -59.222  0.00  0.00    +0.000 A 
ATOM     19  C2* UNL     1     -64.798 -46.396 -57.959  0.00  0.00    +0.000 A 
BRANCH  18  20
ATOM     20  O3* UNL     1     -64.652 -45.943 -60.340  0.00  0.00    +0.000 OA
ATOM     21  H3* UNL     1     -64.011 -45.949 -61.075  0.00  0.00    +0.000 HD
ENDBRANCH  18  20
BRANCH  19  22
ATOM     22  O2* UNL     1     -65.949 -45.665 -57.851  0.00  0.00    +0.000 OA
ATOM     23  H2* UNL     1     -66.717 -46.271 -57.841  0.00  0.00    +0.000 HD
ENDBRANCH  19  22
BRANCH  17  24
ATOM     24  C5* UNL     1     -61.681 -46.613 -59.892  0.00  0.00    +0.000 C 
BRANCH  24  25
ATOM     25  O5* UNL     1     -60.693 -46.530 -60.777  0.00  0.00    +0.000 OA
ATOM     26  H5* UNL     1     -59.876 -46.216 -60.350  0.00  0.00    +0.000 HD
ENDBRANCH  24  25
ENDBRANCH  17  24
ENDBRANCH   2  15
TORSDOF 5
ENDMDL
MODEL 7
REMARK VINA RESULT:      -4.4     35.278     37.988
REMARK  Name = Thioguanosine.pdbqt.pdb
REMARK  5 active torsions:
REMARK  status: ('A' for Active; 'I' for Inactive)
REMARK    1  A    between atoms: N_2  and  C1*_12
REMARK    2  A    between atoms: C4*_14  and  C5*_17
REMARK    3  A    between atoms: C3*_15  and  O3*_20
REMARK    4  A    between atoms: C2*_16  and  O2*_22
REMARK    5  A    between atoms: C5*_17  and  O5*_18
REMARK                            x       y       z     vdW  Elec       q    Type
REMARK                         _______ _______ _______ _____ _____    ______ ____
ROOT
ATOM      1  S   UNL     1     -65.750 -60.743 -75.258  0.00  0.00    +0.000 S 
ATOM      2  N   UNL     1     -65.362 -61.892 -70.512  0.00  0.00    +0.000 N 
ATOM      3  N   UNL     1     -67.114 -60.245 -71.042  0.00  0.00    +0.000 N 
ATOM      4  N   UNL     1     -64.661 -62.206 -72.642  0.00  0.00    +0.000 NA
ATOM      5  N   UNL     1     -67.315 -59.619 -73.327  0.00  0.00    +0.000 NA
ATOM      6  C   UNL     1     -66.113 -61.094 -71.338  0.00  0.00    +0.000 A 
ATOM      7  C   UNL     1     -64.510 -62.557 -71.380  0.00  0.00    +0.000 A 
ATOM      8  C   UNL     1     -65.670 -61.274 -72.624  0.00  0.00    +0.000 A 
ATOM      9  C   UNL     1     -66.297 -60.501 -73.698  0.00  0.00    +0.000 A 
ATOM     10  C   UNL     1     -67.665 -59.539 -72.076  0.00  0.00    +0.000 A 
ATOM     11  H   UNL     1     -67.427 -60.073 -70.089  0.00  0.00    +0.000 HD
ATOM     12  N   UNL     1     -68.653 -58.696 -71.691  0.00  0.00    +0.000 N 
ATOM     13  H   UNL     1     -69.337 -59.111 -71.072  0.00  0.00    +0.000 HD
ATOM     14  H   UNL     1     -69.108 -58.287 -72.504  0.00  0.00    +0.000 HD
ENDROOT
BRANCH   2  15
ATOM     15  C1* UNL     1     -65.376 -62.037 -69.139  0.00  0.00    +0.000 A 
ATOM     16  O4* UNL     1     -65.728 -60.971 -68.277  0.00  0.00    +0.000 OA
ATOM     17  C4* UNL     1     -65.640 -61.404 -66.944  0.00  0.00    +0.000 A 
ATOM     18  C3* UNL     1     -65.229 -62.779 -66.946  0.00  0.00    +0.000 A 
ATOM     19  C2* UNL     1     -65.075 -63.179 -68.310  0.00  0.00    +0.000 A 
BRANCH  18  20
ATOM     20  O3* UNL     1     -64.448 -63.336 -65.970  0.00  0.00    +0.000 OA
ATOM     21  H3* UNL     1     -63.619 -62.838 -65.846  0.00  0.00    +0.000 HD
ENDBRANCH  18  20
BRANCH  19  22
ATOM     22  O2* UNL     1     -64.160 -64.133 -68.660  0.00  0.00    +0.000 OA
ATOM     23  H2* UNL     1     -63.744 -64.495 -67.851  0.00  0.00    +0.000 HD
ENDBRANCH  19  22
BRANCH  17  24
ATOM     24  C5* UNL     1     -65.683 -60.519 -65.851  0.00  0.00    +0.000 C 
BRANCH  24  25
ATOM     25  O5* UNL     1     -65.712 -59.698 -64.806  0.00  0.00    +0.000 OA
ATOM     26  H5* UNL     1     -65.001 -59.917 -64.178  0.00  0.00    +0.000 HD
ENDBRANCH  24  25
ENDBRANCH  17  24
ENDBRANCH   2  15
TORSDOF 5
ENDMDL
MODEL 8
REMARK VINA RESULT:      -4.3      1.027      2.632
REMARK  Name = Thioguanosine.pdbqt.pdb
REMARK  5 active torsions:
REMARK  status: ('A' for Active; 'I' for Inactive)
REMARK    1  A    between atoms: N_2  and  C1*_12
REMARK    2  A    between atoms: C4*_14  and  C5*_17
REMARK    3  A    between atoms: C3*_15  and  O3*_20
REMARK    4  A    between atoms: C2*_16  and  O2*_22
REMARK    5  A    between atoms: C5*_17  and  O5*_18
REMARK                            x       y       z     vdW  Elec       q    Type
REMARK                         _______ _______ _______ _____ _____    ______ ____
ROOT
ATOM      1  S   UNL     1     -72.315 -57.544 -28.559  0.00  0.00    +0.000 S 
ATOM      2  N   UNL     1     -69.482 -57.499 -32.555  0.00  0.00    +0.000 N 
ATOM      3  N   UNL     1     -70.628 -59.634 -32.119  0.00  0.00    +0.000 N 
ATOM      4  N   UNL     1     -70.343 -56.386 -30.782  0.00  0.00    +0.000 NA
ATOM      5  N   UNL     1     -71.982 -59.723 -30.166  0.00  0.00    +0.000 NA
ATOM      6  C   UNL     1     -70.310 -58.351 -31.868  0.00  0.00    +0.000 A 
ATOM      7  C   UNL     1     -69.568 -56.312 -31.845  0.00  0.00    +0.000 A 
ATOM      8  C   UNL     1     -70.812 -57.677 -30.785  0.00  0.00    +0.000 A 
ATOM      9  C   UNL     1     -71.705 -58.388 -29.868  0.00  0.00    +0.000 A 
ATOM     10  C   UNL     1     -71.460 -60.259 -31.232  0.00  0.00    +0.000 A 
ATOM     11  H   UNL     1     -70.233 -60.158 -32.897  0.00  0.00    +0.000 HD
ATOM     12  N   UNL     1     -71.717 -61.551 -31.547  0.00  0.00    +0.000 N 
ATOM     13  H   UNL     1     -71.969 -61.702 -32.515  0.00  0.00    +0.000 HD
ATOM     14  H   UNL     1     -72.430 -61.933 -30.929  0.00  0.00    +0.000 HD
ENDROOT
BRANCH   2  15
ATOM     15  C1* UNL     1     -68.702 -57.705 -33.676  0.00  0.00    +0.000 A 
ATOM     16  O4* UNL     1     -68.812 -56.886 -34.825  0.00  0.00    +0.000 OA
ATOM     17  C4* UNL     1     -67.912 -57.337 -35.805  0.00  0.00    +0.000 A 
ATOM     18  C3* UNL     1     -67.202 -58.466 -35.274  0.00  0.00    +0.000 A 
ATOM     19  C2* UNL     1     -67.684 -58.691 -33.946  0.00  0.00    +0.000 A 
BRANCH  18  20
ATOM     20  O3* UNL     1     -66.771 -59.516 -36.039  0.00  0.00    +0.000 OA
ATOM     21  H3* UNL     1     -67.012 -59.398 -36.977  0.00  0.00    +0.000 HD
ENDBRANCH  18  20
BRANCH  19  22
ATOM     22  O2* UNL     1     -67.707 -59.951 -33.415  0.00  0.00    +0.000 OA
ATOM     23  H2* UNL     1     -66.805 -60.330 -33.442  0.00  0.00    +0.000 HD
ENDBRANCH  19  22
BRANCH  17  24
ATOM     24  C5* UNL     1     -67.953 -56.894 -37.139  0.00  0.00    +0.000 C 
BRANCH  24  25
ATOM     25  O5* UNL     1     -68.000 -56.497 -38.406  0.00  0.00    +0.000 OA
ATOM     26  H5* UNL     1     -68.913 -56.277 -38.663  0.00  0.00    +0.000 HD
ENDBRANCH  24  25
ENDBRANCH  17  24
ENDBRANCH   2  15
TORSDOF 5
ENDMDL
MODEL 9
REMARK VINA RESULT:      -4.3     23.358     25.435
REMARK  Name = Thioguanosine.pdbqt.pdb
REMARK  5 active torsions:
REMARK  status: ('A' for Active; 'I' for Inactive)
REMARK    1  A    between atoms: N_2  and  C1*_12
REMARK    2  A    between atoms: C4*_14  and  C5*_17
REMARK    3  A    between atoms: C3*_15  and  O3*_20
REMARK    4  A    between atoms: C2*_16  and  O2*_22
REMARK    5  A    between atoms: C5*_17  and  O5*_18
REMARK                            x       y       z     vdW  Elec       q    Type
REMARK                         _______ _______ _______ _____ _____    ______ ____
ROOT
ATOM      1  S   UNL     1     -67.065 -47.094 -58.065  0.00  0.00    +0.000 S 
ATOM      2  N   UNL     1     -64.620 -46.391 -53.879  0.00  0.00    +0.000 N 
ATOM      3  N   UNL     1     -63.250 -46.244 -55.919  0.00  0.00    +0.000 N 
ATOM      4  N   UNL     1     -66.588 -46.787 -54.927  0.00  0.00    +0.000 NA
ATOM      5  N   UNL     1     -64.380 -46.621 -57.977  0.00  0.00    +0.000 NA
ATOM      6  C   UNL     1     -64.394 -46.417 -55.232  0.00  0.00    +0.000 A 
ATOM      7  C   UNL     1     -65.986 -46.604 -53.769  0.00  0.00    +0.000 A 
ATOM      8  C   UNL     1     -65.585 -46.677 -55.860  0.00  0.00    +0.000 A 
ATOM      9  C   UNL     1     -65.601 -46.788 -57.320  0.00  0.00    +0.000 A 
ATOM     10  C   UNL     1     -63.311 -46.364 -57.280  0.00  0.00    +0.000 A 
ATOM     11  H   UNL     1     -62.352 -46.089 -55.465  0.00  0.00    +0.000 HD
ATOM     12  N   UNL     1     -62.115 -46.192 -57.894  0.00  0.00    +0.000 N 
ATOM     13  H   UNL     1     -61.598 -45.382 -57.580  0.00  0.00    +0.000 HD
ATOM     14  H   UNL     1     -62.234 -46.171 -58.904  0.00  0.00    +0.000 HD
ENDROOT
BRANCH   2  15
ATOM     15  C1* UNL     1     -63.750 -46.221 -52.820  0.00  0.00    +0.000 A 
ATOM     16  O4* UNL     1     -62.564 -45.458 -52.941  0.00  0.00    +0.000 OA
ATOM     17  C4* UNL     1     -61.876 -45.474 -51.717  0.00  0.00    +0.000 A 
ATOM     18  C3* UNL     1     -62.637 -46.256 -50.785  0.00  0.00    +0.000 A 
ATOM     19  C2* UNL     1     -63.809 -46.713 -51.466  0.00  0.00    +0.000 A 
BRANCH  18  20
ATOM     20  O3* UNL     1     -62.072 -47.015 -49.796  0.00  0.00    +0.000 OA
ATOM     21  H3* UNL     1     -62.280 -47.961 -49.907  0.00  0.00    +0.000 HD
ENDBRANCH  18  20
BRANCH  19  22
ATOM     22  O2* UNL     1     -64.393 -47.904 -51.130  0.00  0.00    +0.000 OA
ATOM     23  H2* UNL     1     -65.021 -47.760 -50.392  0.00  0.00    +0.000 HD
ENDBRANCH  19  22
BRANCH  17  24
ATOM     24  C5* UNL     1     -60.550 -45.022 -51.582  0.00  0.00    +0.000 C 
BRANCH  24  25
ATOM     25  O5* UNL     1     -59.299 -44.601 -51.432  0.00  0.00    +0.000 OA
ATOM     26  H5* UNL     1     -58.673 -45.338 -51.548  0.00  0.00    +0.000 HD
ENDBRANCH  24  25
ENDBRANCH  17  24
ENDBRANCH   2  15
TORSDOF 5
ENDMDL
