MODEL 1
REMARK VINA RESULT:      -5.1      0.000      0.000
REMARK  Name = Trichostatin_A.pdbqt.pdb
REMARK  6 active torsions:
REMARK  status: ('A' for Active; 'I' for Inactive)
REMARK    1  A    between atoms: C_1  and  C_15
REMARK    2  A    between atoms: C_4  and  C_6
REMARK    3  A    between atoms: C_7  and  C_10
REMARK    4  A    between atoms: N_9  and  O_12
REMARK    5  A    between atoms: C_15  and  C_16
REMARK    6  A    between atoms: C_17  and  N_22
REMARK                            x       y       z     vdW  Elec       q    Type
REMARK                         _______ _______ _______ _____ _____    ______ ____
ROOT
ATOM      1  C   UNL     1     -62.593 -46.181 -58.507  0.00  0.00    +0.000 C 
ATOM      2  C   UNL     1     -61.098 -45.952 -58.412  0.00  0.00    +0.000 C 
ATOM      3  C   UNL     1     -63.301 -46.158 -57.281  0.00  0.00    +0.000 C 
ATOM      4  C   UNL     1     -63.993 -46.153 -56.190  0.00  0.00    +0.000 C 
ATOM      5  C   UNL     1     -64.704 -44.902 -55.773  0.00  0.00    +0.000 C 
ENDROOT
BRANCH   4   6
ATOM      6  C   UNL     1     -64.242 -47.363 -55.503  0.00  0.00    +0.000 C 
ATOM      7  C   UNL     1     -64.455 -48.390 -54.915  0.00  0.00    +0.000 C 
BRANCH   7  10
ATOM      8  O   UNL     1     -63.957 -50.000 -53.333  0.00  0.00    +0.000 OA
ATOM      9  N   UNL     1     -65.833 -50.307 -54.604  0.00  0.00    +0.000 N 
ATOM     10  C   UNL     1     -64.716 -49.621 -54.217  0.00  0.00    +0.000 C 
ATOM     11  H   UNL     1     -66.467 -50.012 -55.337  0.00  0.00    +0.000 HD
BRANCH   9  12
ATOM     12  O   UNL     1     -66.114 -51.523 -53.946  0.00  0.00    +0.000 OA
ATOM     13  H   UNL     1     -65.263 -51.734 -53.504  0.00  0.00    +0.000 HD
ENDBRANCH   9  12
ENDBRANCH   7  10
ENDBRANCH   4   6
BRANCH   1  15
ATOM     14  O   UNL     1     -62.629 -47.151 -60.675  0.00  0.00    +0.000 OA
ATOM     15  C   UNL     1     -63.276 -46.679 -59.739  0.00  0.00    +0.000 C 
BRANCH  15  16
ATOM     16  C   UNL     1     -64.747 -46.623 -59.850  0.00  0.00    +0.000 A 
ATOM     17  C   UNL     1     -67.577 -46.593 -59.894  0.00  0.00    +0.000 A 
ATOM     18  C   UNL     1     -65.432 -45.416 -59.951  0.00  0.00    +0.000 A 
ATOM     19  C   UNL     1     -65.463 -47.813 -59.741  0.00  0.00    +0.000 A 
ATOM     20  C   UNL     1     -66.827 -45.409 -59.985  0.00  0.00    +0.000 A 
ATOM     21  C   UNL     1     -66.857 -47.793 -59.776  0.00  0.00    +0.000 A 
BRANCH  17  22
ATOM     22  N   UNL     1     -68.993 -46.579 -59.947  0.00  0.00    +0.000 N 
ATOM     23  C   UNL     1     -69.787 -47.121 -58.856  0.00  0.00    +0.000 C 
ATOM     24  C   UNL     1     -69.694 -46.445 -61.213  0.00  0.00    +0.000 C 
ENDBRANCH  17  22
ENDBRANCH  15  16
ENDBRANCH   1  15
TORSDOF 6
ENDMDL
MODEL 2
REMARK VINA RESULT:      -5.0      2.723      4.960
REMARK  Name = Trichostatin_A.pdbqt.pdb
REMARK  6 active torsions:
REMARK  status: ('A' for Active; 'I' for Inactive)
REMARK    1  A    between atoms: C_1  and  C_15
REMARK    2  A    between atoms: C_4  and  C_6
REMARK    3  A    between atoms: C_7  and  C_10
REMARK    4  A    between atoms: N_9  and  O_12
REMARK    5  A    between atoms: C_15  and  C_16
REMARK    6  A    between atoms: C_17  and  N_22
REMARK                            x       y       z     vdW  Elec       q    Type
REMARK                         _______ _______ _______ _____ _____    ______ ____
ROOT
ATOM      1  C   UNL     1     -68.567 -47.344 -58.123  0.00  0.00    +0.000 C 
ATOM      2  C   UNL     1     -69.520 -46.278 -57.620  0.00  0.00    +0.000 C 
ATOM      3  C   UNL     1     -68.248 -48.371 -57.204  0.00  0.00    +0.000 C 
ATOM      4  C   UNL     1     -67.918 -49.329 -56.402  0.00  0.00    +0.000 C 
ATOM      5  C   UNL     1     -68.646 -50.636 -56.475  0.00  0.00    +0.000 C 
ENDROOT
BRANCH   4   6
ATOM      6  C   UNL     1     -66.757 -49.217 -55.603  0.00  0.00    +0.000 C 
ATOM      7  C   UNL     1     -65.767 -49.125 -54.926  0.00  0.00    +0.000 C 
BRANCH   7  10
ATOM      8  O   UNL     1     -63.625 -49.743 -54.318  0.00  0.00    +0.000 OA
ATOM      9  N   UNL     1     -64.611 -48.046 -53.145  0.00  0.00    +0.000 N 
ATOM     10  C   UNL     1     -64.583 -49.006 -54.117  0.00  0.00    +0.000 C 
ATOM     11  H   UNL     1     -65.397 -47.434 -52.962  0.00  0.00    +0.000 HD
BRANCH   9  12
ATOM     12  O   UNL     1     -63.470 -47.909 -52.328  0.00  0.00    +0.000 OA
ATOM     13  H   UNL     1     -63.312 -46.940 -52.335  0.00  0.00    +0.000 HD
ENDBRANCH   9  12
ENDBRANCH   7  10
ENDBRANCH   4   6
BRANCH   1  15
ATOM     14  O   UNL     1     -68.332 -47.210 -60.483  0.00  0.00    +0.000 OA
ATOM     15  C   UNL     1     -67.776 -47.215 -59.384  0.00  0.00    +0.000 C 
BRANCH  15  16
ATOM     16  C   UNL     1     -66.306 -47.079 -59.331  0.00  0.00    +0.000 A 
ATOM     17  C   UNL     1     -63.497 -46.747 -59.400  0.00  0.00    +0.000 A 
ATOM     18  C   UNL     1     -65.678 -46.246 -58.411  0.00  0.00    +0.000 A 
ATOM     19  C   UNL     1     -65.548 -47.725 -60.304  0.00  0.00    +0.000 A 
ATOM     20  C   UNL     1     -64.291 -46.097 -58.442  0.00  0.00    +0.000 A 
ATOM     21  C   UNL     1     -64.162 -47.568 -60.324  0.00  0.00    +0.000 A 
BRANCH  17  22
ATOM     22  N   UNL     1     -62.087 -46.605 -59.414  0.00  0.00    +0.000 N 
ATOM     23  C   UNL     1     -61.375 -46.094 -58.254  0.00  0.00    +0.000 C 
ATOM     24  C   UNL     1     -61.353 -46.536 -60.667  0.00  0.00    +0.000 C 
ENDBRANCH  17  22
ENDBRANCH  15  16
ENDBRANCH   1  15
TORSDOF 6
ENDMDL
MODEL 3
REMARK VINA RESULT:      -5.0     19.961     22.448
REMARK  Name = Trichostatin_A.pdbqt.pdb
REMARK  6 active torsions:
REMARK  status: ('A' for Active; 'I' for Inactive)
REMARK    1  A    between atoms: C_1  and  C_15
REMARK    2  A    between atoms: C_4  and  C_6
REMARK    3  A    between atoms: C_7  and  C_10
REMARK    4  A    between atoms: N_9  and  O_12
REMARK    5  A    between atoms: C_15  and  C_16
REMARK    6  A    between atoms: C_17  and  N_22
REMARK                            x       y       z     vdW  Elec       q    Type
REMARK                         _______ _______ _______ _____ _____    ______ ____
ROOT
ATOM      1  C   UNL     1     -67.626 -60.270 -73.895  0.00  0.00    +0.000 C 
ATOM      2  C   UNL     1     -68.691 -61.344 -73.813  0.00  0.00    +0.000 C 
ATOM      3  C   UNL     1     -67.248 -59.871 -75.199  0.00  0.00    +0.000 C 
ATOM      4  C   UNL     1     -66.862 -59.476 -76.367  0.00  0.00    +0.000 C 
ATOM      5  C   UNL     1     -67.463 -58.239 -76.963  0.00  0.00    +0.000 C 
ENDROOT
BRANCH   4   6
ATOM      6  C   UNL     1     -65.748 -60.084 -76.990  0.00  0.00    +0.000 C 
ATOM      7  C   UNL     1     -64.798 -60.598 -77.518  0.00  0.00    +0.000 C 
BRANCH   7  10
ATOM      8  O   UNL     1     -63.662 -62.428 -78.358  0.00  0.00    +0.000 OA
ATOM      9  N   UNL     1     -62.626 -60.392 -78.472  0.00  0.00    +0.000 N 
ATOM     10  C   UNL     1     -63.663 -61.221 -78.146  0.00  0.00    +0.000 C 
ATOM     11  H   UNL     1     -62.607 -59.395 -78.297  0.00  0.00    +0.000 HD
BRANCH   9  12
ATOM     12  O   UNL     1     -61.493 -60.971 -79.081  0.00  0.00    +0.000 OA
ATOM     13  H   UNL     1     -61.500 -60.574 -79.979  0.00  0.00    +0.000 HD
ENDBRANCH   9  12
ENDBRANCH   7  10
ENDBRANCH   4   6
BRANCH   1  15
ATOM     14  O   UNL     1     -66.877 -58.685 -72.291  0.00  0.00    +0.000 OA
ATOM     15  C   UNL     1     -66.801 -59.834 -72.726  0.00  0.00    +0.000 C 
BRANCH  15  16
ATOM     16  C   UNL     1     -65.886 -60.785 -72.064  0.00  0.00    +0.000 A 
ATOM     17  C   UNL     1     -64.281 -62.696 -70.730  0.00  0.00    +0.000 A 
ATOM     18  C   UNL     1     -65.023 -61.601 -72.789  0.00  0.00    +0.000 A 
ATOM     19  C   UNL     1     -65.976 -60.934 -70.682  0.00  0.00    +0.000 A 
ATOM     20  C   UNL     1     -64.226 -62.533 -72.124  0.00  0.00    +0.000 A 
ATOM     21  C   UNL     1     -65.172 -61.869 -70.029  0.00  0.00    +0.000 A 
BRANCH  17  22
ATOM     22  N   UNL     1     -63.454 -63.633 -70.060  0.00  0.00    +0.000 N 
ATOM     23  C   UNL     1     -63.777 -64.088 -68.718  0.00  0.00    +0.000 C 
ATOM     24  C   UNL     1     -62.074 -63.840 -70.467  0.00  0.00    +0.000 C 
ENDBRANCH  17  22
ENDBRANCH  15  16
ENDBRANCH   1  15
TORSDOF 6
ENDMDL
MODEL 4
REMARK VINA RESULT:      -4.8     19.743     21.427
REMARK  Name = Trichostatin_A.pdbqt.pdb
REMARK  6 active torsions:
REMARK  status: ('A' for Active; 'I' for Inactive)
REMARK    1  A    between atoms: C_1  and  C_15
REMARK    2  A    between atoms: C_4  and  C_6
REMARK    3  A    between atoms: C_7  and  C_10
REMARK    4  A    between atoms: N_9  and  O_12
REMARK    5  A    between atoms: C_15  and  C_16
REMARK    6  A    between atoms: C_17  and  N_22
REMARK                            x       y       z     vdW  Elec       q    Type
REMARK                         _______ _______ _______ _____ _____    ______ ____
ROOT
ATOM      1  C   UNL     1     -65.212 -62.792 -69.622  0.00  0.00    +0.000 C 
ATOM      2  C   UNL     1     -65.579 -63.133 -68.192  0.00  0.00    +0.000 C 
ATOM      3  C   UNL     1     -64.472 -63.775 -70.322  0.00  0.00    +0.000 C 
ATOM      4  C   UNL     1     -63.791 -64.636 -71.004  0.00  0.00    +0.000 C 
ATOM      5  C   UNL     1     -64.504 -65.577 -71.927  0.00  0.00    +0.000 C 
ENDROOT
BRANCH   4   6
ATOM      6  C   UNL     1     -62.379 -64.561 -71.032  0.00  0.00    +0.000 C 
ATOM      7  C   UNL     1     -61.179 -64.494 -71.057  0.00  0.00    +0.000 C 
BRANCH   7  10
ATOM      8  O   UNL     1     -59.125 -64.139 -70.058  0.00  0.00    +0.000 OA
ATOM      9  N   UNL     1     -59.145 -64.664 -72.284  0.00  0.00    +0.000 N 
ATOM     10  C   UNL     1     -59.742 -64.416 -71.080  0.00  0.00    +0.000 C 
ATOM     11  H   UNL     1     -59.640 -64.887 -73.139  0.00  0.00    +0.000 HD
BRANCH   9  12
ATOM     12  O   UNL     1     -57.738 -64.587 -72.344  0.00  0.00    +0.000 OA
ATOM     13  H   UNL     1     -57.580 -63.645 -72.575  0.00  0.00    +0.000 HD
ENDBRANCH   9  12
ENDBRANCH   7  10
ENDBRANCH   4   6
BRANCH   1  15
ATOM     14  O   UNL     1     -65.295 -60.422 -69.492  0.00  0.00    +0.000 OA
ATOM     15  C   UNL     1     -65.349 -61.423 -70.206  0.00  0.00    +0.000 C 
BRANCH  15  16
ATOM     16  C   UNL     1     -65.539 -61.249 -71.660  0.00  0.00    +0.000 A 
ATOM     17  C   UNL     1     -65.963 -60.743 -74.412  0.00  0.00    +0.000 A 
ATOM     18  C   UNL     1     -64.472 -61.295 -72.552  0.00  0.00    +0.000 A 
ATOM     19  C   UNL     1     -66.811 -60.923 -72.125  0.00  0.00    +0.000 A 
ATOM     20  C   UNL     1     -64.690 -61.057 -73.909  0.00  0.00    +0.000 A 
ATOM     21  C   UNL     1     -67.016 -60.688 -73.485  0.00  0.00    +0.000 A 
BRANCH  17  22
ATOM     22  N   UNL     1     -66.180 -60.520 -75.795  0.00  0.00    +0.000 N 
ATOM     23  C   UNL     1     -67.518 -60.576 -76.360  0.00  0.00    +0.000 C 
ATOM     24  C   UNL     1     -65.098 -60.662 -76.755  0.00  0.00    +0.000 C 
ENDBRANCH  17  22
ENDBRANCH  15  16
ENDBRANCH   1  15
TORSDOF 6
ENDMDL
MODEL 5
REMARK VINA RESULT:      -4.8     27.038     28.854
REMARK  Name = Trichostatin_A.pdbqt.pdb
REMARK  6 active torsions:
REMARK  status: ('A' for Active; 'I' for Inactive)
REMARK    1  A    between atoms: C_1  and  C_15
REMARK    2  A    between atoms: C_4  and  C_6
REMARK    3  A    between atoms: C_7  and  C_10
REMARK    4  A    between atoms: N_9  and  O_12
REMARK    5  A    between atoms: C_15  and  C_16
REMARK    6  A    between atoms: C_17  and  N_22
REMARK                            x       y       z     vdW  Elec       q    Type
REMARK                         _______ _______ _______ _____ _____    ______ ____
ROOT
ATOM      1  C   UNL     1     -49.870 -60.921 -77.933  0.00  0.00    +0.000 C 
ATOM      2  C   UNL     1     -48.760 -61.793 -78.483  0.00  0.00    +0.000 C 
ATOM      3  C   UNL     1     -50.126 -61.047 -76.546  0.00  0.00    +0.000 C 
ATOM      4  C   UNL     1     -50.403 -61.129 -75.287  0.00  0.00    +0.000 C 
ATOM      5  C   UNL     1     -49.813 -60.133 -74.336  0.00  0.00    +0.000 C 
ENDROOT
BRANCH   4   6
ATOM      6  C   UNL     1     -51.406 -62.018 -74.838  0.00  0.00    +0.000 C 
ATOM      7  C   UNL     1     -52.262 -62.772 -74.457  0.00  0.00    +0.000 C 
BRANCH   7  10
ATOM      8  O   UNL     1     -54.309 -63.244 -73.493  0.00  0.00    +0.000 OA
ATOM      9  N   UNL     1     -53.031 -65.009 -74.187  0.00  0.00    +0.000 N 
ATOM     10  C   UNL     1     -53.284 -63.678 -74.006  0.00  0.00    +0.000 C 
ATOM     11  H   UNL     1     -52.187 -65.385 -74.602  0.00  0.00    +0.000 HD
BRANCH   9  12
ATOM     12  O   UNL     1     -54.009 -65.927 -73.748  0.00  0.00    +0.000 OA
ATOM     13  H   UNL     1     -53.650 -66.233 -72.887  0.00  0.00    +0.000 HD
ENDBRANCH   9  12
ENDBRANCH   7  10
ENDBRANCH   4   6
BRANCH   1  15
ATOM     14  O   UNL     1     -52.005 -60.008 -78.433  0.00  0.00    +0.000 OA
ATOM     15  C   UNL     1     -50.840 -60.179 -78.793  0.00  0.00    +0.000 C 
BRANCH  15  16
ATOM     16  C   UNL     1     -50.411 -59.623 -80.092  0.00  0.00    +0.000 A 
ATOM     17  C   UNL     1     -49.421 -58.528 -82.507  0.00  0.00    +0.000 A 
ATOM     18  C   UNL     1     -50.372 -60.397 -81.247  0.00  0.00    +0.000 A 
ATOM     19  C   UNL     1     -49.932 -58.315 -80.125  0.00  0.00    +0.000 A 
ATOM     20  C   UNL     1     -49.895 -59.848 -82.437  0.00  0.00    +0.000 A 
ATOM     21  C   UNL     1     -49.458 -57.777 -81.322  0.00  0.00    +0.000 A 
BRANCH  17  22
ATOM     22  N   UNL     1     -48.954 -57.971 -83.724  0.00  0.00    +0.000 N 
ATOM     23  C   UNL     1     -49.849 -57.230 -84.599  0.00  0.00    +0.000 C 
ATOM     24  C   UNL     1     -47.739 -58.461 -84.355  0.00  0.00    +0.000 C 
ENDBRANCH  17  22
ENDBRANCH  15  16
ENDBRANCH   1  15
TORSDOF 6
ENDMDL
MODEL 6
REMARK VINA RESULT:      -4.8     29.255     31.174
REMARK  Name = Trichostatin_A.pdbqt.pdb
REMARK  6 active torsions:
REMARK  status: ('A' for Active; 'I' for Inactive)
REMARK    1  A    between atoms: C_1  and  C_15
REMARK    2  A    between atoms: C_4  and  C_6
REMARK    3  A    between atoms: C_7  and  C_10
REMARK    4  A    between atoms: N_9  and  O_12
REMARK    5  A    between atoms: C_15  and  C_16
REMARK    6  A    between atoms: C_17  and  N_22
REMARK                            x       y       z     vdW  Elec       q    Type
REMARK                         _______ _______ _______ _____ _____    ______ ____
ROOT
ATOM      1  C   UNL     1     -47.571 -64.266 -80.379  0.00  0.00    +0.000 C 
ATOM      2  C   UNL     1     -47.249 -65.741 -80.246  0.00  0.00    +0.000 C 
ATOM      3  C   UNL     1     -47.583 -63.525 -79.173  0.00  0.00    +0.000 C 
ATOM      4  C   UNL     1     -47.614 -62.805 -78.100  0.00  0.00    +0.000 C 
ATOM      5  C   UNL     1     -46.406 -62.007 -77.713  0.00  0.00    +0.000 C 
ENDROOT
BRANCH   4   6
ATOM      6  C   UNL     1     -48.832 -62.613 -77.409  0.00  0.00    +0.000 C 
ATOM      7  C   UNL     1     -49.870 -62.450 -76.825  0.00  0.00    +0.000 C 
BRANCH   7  10
ATOM      8  O   UNL     1     -51.300 -61.237 -75.473  0.00  0.00    +0.000 OA
ATOM      9  N   UNL     1     -52.021 -63.275 -76.221  0.00  0.00    +0.000 N 
ATOM     10  C   UNL     1     -51.110 -62.261 -76.119  0.00  0.00    +0.000 C 
ATOM     11  H   UNL     1     -51.877 -64.130 -76.745  0.00  0.00    +0.000 HD
BRANCH   9  12
ATOM     12  O   UNL     1     -53.244 -63.126 -75.534  0.00  0.00    +0.000 OA
ATOM     13  H   UNL     1     -53.364 -64.003 -75.110  0.00  0.00    +0.000 HD
ENDBRANCH   9  12
ENDBRANCH   7  10
ENDBRANCH   4   6
BRANCH   1  15
ATOM     14  O   UNL     1     -48.415 -64.343 -82.598  0.00  0.00    +0.000 OA
ATOM     15  C   UNL     1     -48.119 -63.649 -81.624  0.00  0.00    +0.000 C 
BRANCH  15  16
ATOM     16  C   UNL     1     -48.328 -62.189 -81.703  0.00  0.00    +0.000 A 
ATOM     17  C   UNL     1     -48.684 -59.401 -82.033  0.00  0.00    +0.000 A 
ATOM     18  C   UNL     1     -49.571 -61.611 -81.469  0.00  0.00    +0.000 A 
ATOM     19  C   UNL     1     -47.268 -61.393 -82.129  0.00  0.00    +0.000 A 
ATOM     20  C   UNL     1     -49.737 -60.234 -81.621  0.00  0.00    +0.000 A 
ATOM     21  C   UNL     1     -47.446 -60.017 -82.277  0.00  0.00    +0.000 A 
BRANCH  17  22
ATOM     22  N   UNL     1     -48.856 -58.001 -82.168  0.00  0.00    +0.000 N 
ATOM     23  C   UNL     1     -50.085 -57.353 -81.740  0.00  0.00    +0.000 C 
ATOM     24  C   UNL     1     -48.046 -57.234 -83.101  0.00  0.00    +0.000 C 
ENDBRANCH  17  22
ENDBRANCH  15  16
ENDBRANCH   1  15
TORSDOF 6
ENDMDL
MODEL 7
REMARK VINA RESULT:      -4.7     38.108     42.547
REMARK  Name = Trichostatin_A.pdbqt.pdb
REMARK  6 active torsions:
REMARK  status: ('A' for Active; 'I' for Inactive)
REMARK    1  A    between atoms: C_1  and  C_15
REMARK    2  A    between atoms: C_4  and  C_6
REMARK    3  A    between atoms: C_7  and  C_10
REMARK    4  A    between atoms: N_9  and  O_12
REMARK    5  A    between atoms: C_15  and  C_16
REMARK    6  A    between atoms: C_17  and  N_22
REMARK                            x       y       z     vdW  Elec       q    Type
REMARK                         _______ _______ _______ _____ _____    ______ ____
ROOT
ATOM      1  C   UNL     1     -63.684 -55.475 -16.483  0.00  0.00    +0.000 C 
ATOM      2  C   UNL     1     -65.133 -55.125 -16.213  0.00  0.00    +0.000 C 
ATOM      3  C   UNL     1     -62.974 -54.576 -17.314  0.00  0.00    +0.000 C 
ATOM      4  C   UNL     1     -62.284 -53.790 -18.073  0.00  0.00    +0.000 C 
ATOM      5  C   UNL     1     -61.407 -52.747 -17.451  0.00  0.00    +0.000 C 
ENDROOT
BRANCH   4   6
ATOM      6  C   UNL     1     -62.200 -54.039 -19.462  0.00  0.00    +0.000 C 
ATOM      7  C   UNL     1     -62.131 -54.252 -20.643  0.00  0.00    +0.000 C 
BRANCH   7  10
ATOM      8  O   UNL     1     -62.116 -55.645 -22.488  0.00  0.00    +0.000 OA
ATOM      9  N   UNL     1     -61.893 -53.399 -22.854  0.00  0.00    +0.000 N 
ATOM     10  C   UNL     1     -62.049 -54.499 -22.059  0.00  0.00    +0.000 C 
ATOM     11  H   UNL     1     -61.829 -52.446 -22.515  0.00  0.00    +0.000 HD
BRANCH   9  12
ATOM     12  O   UNL     1     -61.799 -53.606 -24.246  0.00  0.00    +0.000 OA
ATOM     13  H   UNL     1     -62.294 -52.842 -24.615  0.00  0.00    +0.000 HD
ENDBRANCH   9  12
ENDBRANCH   7  10
ENDBRANCH   4   6
BRANCH   1  15
ATOM     14  O   UNL     1     -61.995 -57.139 -16.629  0.00  0.00    +0.000 OA
ATOM     15  C   UNL     1     -63.080 -56.802 -16.155  0.00  0.00    +0.000 C 
BRANCH  15  16
ATOM     16  C   UNL     1     -63.775 -57.732 -15.242  0.00  0.00    +0.000 A 
ATOM     17  C   UNL     1     -64.994 -59.646 -13.550  0.00  0.00    +0.000 A 
ATOM     18  C   UNL     1     -63.752 -57.560 -13.861  0.00  0.00    +0.000 A 
ATOM     19  C   UNL     1     -64.375 -58.865 -15.784  0.00  0.00    +0.000 A 
ATOM     20  C   UNL     1     -64.366 -58.501 -13.034  0.00  0.00    +0.000 A 
ATOM     21  C   UNL     1     -64.986 -59.799 -14.946  0.00  0.00    +0.000 A 
BRANCH  17  22
ATOM     22  N   UNL     1     -65.630 -60.588 -12.704  0.00  0.00    +0.000 N 
ATOM     23  C   UNL     1     -65.769 -60.339 -11.279  0.00  0.00    +0.000 C 
ATOM     24  C   UNL     1     -65.772 -61.979 -13.105  0.00  0.00    +0.000 C 
ENDBRANCH  17  22
ENDBRANCH  15  16
ENDBRANCH   1  15
TORSDOF 6
ENDMDL
MODEL 8
REMARK VINA RESULT:      -4.7     19.622     24.356
REMARK  Name = Trichostatin_A.pdbqt.pdb
REMARK  6 active torsions:
REMARK  status: ('A' for Active; 'I' for Inactive)
REMARK    1  A    between atoms: C_1  and  C_15
REMARK    2  A    between atoms: C_4  and  C_6
REMARK    3  A    between atoms: C_7  and  C_10
REMARK    4  A    between atoms: N_9  and  O_12
REMARK    5  A    between atoms: C_15  and  C_16
REMARK    6  A    between atoms: C_17  and  N_22
REMARK                            x       y       z     vdW  Elec       q    Type
REMARK                         _______ _______ _______ _____ _____    ______ ____
ROOT
ATOM      1  C   UNL     1     -69.512 -57.223 -37.338  0.00  0.00    +0.000 C 
ATOM      2  C   UNL     1     -70.683 -58.112 -37.705  0.00  0.00    +0.000 C 
ATOM      3  C   UNL     1     -69.185 -56.213 -38.274  0.00  0.00    +0.000 C 
ATOM      4  C   UNL     1     -68.841 -55.280 -39.099  0.00  0.00    +0.000 C 
ATOM      5  C   UNL     1     -69.340 -53.884 -38.882  0.00  0.00    +0.000 C 
ENDROOT
BRANCH   4   6
ATOM      6  C   UNL     1     -67.848 -55.526 -40.075  0.00  0.00    +0.000 C 
ATOM      7  C   UNL     1     -67.005 -55.739 -40.905  0.00  0.00    +0.000 C 
BRANCH   7  10
ATOM      8  O   UNL     1     -66.306 -56.025 -43.090  0.00  0.00    +0.000 OA
ATOM      9  N   UNL     1     -64.727 -56.176 -41.442  0.00  0.00    +0.000 N 
ATOM     10  C   UNL     1     -66.000 -55.988 -41.903  0.00  0.00    +0.000 C 
ATOM     11  H   UNL     1     -64.458 -56.157 -40.466  0.00  0.00    +0.000 HD
BRANCH   9  12
ATOM     12  O   UNL     1     -63.717 -56.433 -42.394  0.00  0.00    +0.000 OA
ATOM     13  H   UNL     1     -63.328 -55.545 -42.544  0.00  0.00    +0.000 HD
ENDBRANCH   9  12
ENDBRANCH   7  10
ENDBRANCH   4   6
BRANCH   1  15
ATOM     14  O   UNL     1     -67.484 -58.072 -36.440  0.00  0.00    +0.000 OA
ATOM     15  C   UNL     1     -68.564 -57.524 -36.222  0.00  0.00    +0.000 C 
BRANCH  15  16
ATOM     16  C   UNL     1     -68.906 -57.154 -34.834  0.00  0.00    +0.000 A 
ATOM     17  C   UNL     1     -69.723 -56.531 -32.197  0.00  0.00    +0.000 A 
ATOM     18  C   UNL     1     -68.185 -57.636 -33.746  0.00  0.00    +0.000 A 
ATOM     19  C   UNL     1     -70.049 -56.388 -34.617  0.00  0.00    +0.000 A 
ATOM     20  C   UNL     1     -68.586 -57.315 -32.449  0.00  0.00    +0.000 A 
ATOM     21  C   UNL     1     -70.439 -56.073 -33.315  0.00  0.00    +0.000 A 
BRANCH  17  22
ATOM     22  N   UNL     1     -70.114 -56.194 -30.877  0.00  0.00    +0.000 N 
ATOM     23  C   UNL     1     -70.929 -57.100 -30.084  0.00  0.00    +0.000 C 
ATOM     24  C   UNL     1     -70.107 -54.813 -30.423  0.00  0.00    +0.000 C 
ENDBRANCH  17  22
ENDBRANCH  15  16
ENDBRANCH   1  15
TORSDOF 6
ENDMDL
MODEL 9
REMARK VINA RESULT:      -4.7     29.757     31.802
REMARK  Name = Trichostatin_A.pdbqt.pdb
REMARK  6 active torsions:
REMARK  status: ('A' for Active; 'I' for Inactive)
REMARK    1  A    between atoms: C_1  and  C_15
REMARK    2  A    between atoms: C_4  and  C_6
REMARK    3  A    between atoms: C_7  and  C_10
REMARK    4  A    between atoms: N_9  and  O_12
REMARK    5  A    between atoms: C_15  and  C_16
REMARK    6  A    between atoms: C_17  and  N_22
REMARK                            x       y       z     vdW  Elec       q    Type
REMARK                         _______ _______ _______ _____ _____    ______ ____
ROOT
ATOM      1  C   UNL     1     -48.898 -61.340 -80.675  0.00  0.00    +0.000 C 
ATOM      2  C   UNL     1     -50.182 -60.840 -81.304  0.00  0.00    +0.000 C 
ATOM      3  C   UNL     1     -48.171 -62.293 -81.429  0.00  0.00    +0.000 C 
ATOM      4  C   UNL     1     -47.473 -63.168 -82.073  0.00  0.00    +0.000 C 
ATOM      5  C   UNL     1     -46.314 -62.718 -82.909  0.00  0.00    +0.000 C 
ENDROOT
BRANCH   4   6
ATOM      6  C   UNL     1     -47.671 -64.548 -81.836  0.00  0.00    +0.000 C 
ATOM      7  C   UNL     1     -47.843 -65.720 -81.633  0.00  0.00    +0.000 C 
BRANCH   7  10
ATOM      8  O   UNL     1     -48.705 -67.498 -80.432  0.00  0.00    +0.000 OA
ATOM      9  N   UNL     1     -47.475 -67.977 -82.299  0.00  0.00    +0.000 N 
ATOM     10  C   UNL     1     -48.049 -67.125 -81.398  0.00  0.00    +0.000 C 
ATOM     11  H   UNL     1     -46.924 -67.686 -83.098  0.00  0.00    +0.000 HD
BRANCH   9  12
ATOM     12  O   UNL     1     -47.649 -69.362 -82.094  0.00  0.00    +0.000 OA
ATOM     13  H   UNL     1     -47.355 -69.748 -82.947  0.00  0.00    +0.000 HD
ENDBRANCH   9  12
ENDBRANCH   7  10
ENDBRANCH   4   6
BRANCH   1  15
ATOM     14  O   UNL     1     -47.537 -60.422 -78.958  0.00  0.00    +0.000 OA
ATOM     15  C   UNL     1     -48.526 -61.095 -79.248  0.00  0.00    +0.000 C 
BRANCH  15  16
ATOM     16  C   UNL     1     -49.353 -61.650 -78.157  0.00  0.00    +0.000 A 
ATOM     17  C   UNL     1     -50.788 -62.705 -75.958  0.00  0.00    +0.000 A 
ATOM     18  C   UNL     1     -50.451 -60.966 -77.646  0.00  0.00    +0.000 A 
ATOM     19  C   UNL     1     -48.947 -62.842 -77.562  0.00  0.00    +0.000 A 
ATOM     20  C   UNL     1     -51.162 -61.497 -76.570  0.00  0.00    +0.000 A 
ATOM     21  C   UNL     1     -49.666 -63.363 -76.486  0.00  0.00    +0.000 A 
BRANCH  17  22
ATOM     22  N   UNL     1     -51.525 -63.248 -74.876  0.00  0.00    +0.000 N 
ATOM     23  C   UNL     1     -50.947 -64.265 -74.013  0.00  0.00    +0.000 C 
ATOM     24  C   UNL     1     -52.976 -63.158 -74.838  0.00  0.00    +0.000 C 
ENDBRANCH  17  22
ENDBRANCH  15  16
ENDBRANCH   1  15
TORSDOF 6
ENDMDL
