MODEL 1
REMARK VINA RESULT:      -5.5      0.000      0.000
REMARK  Name = Trifluridine.pdbqt.pdb
REMARK  5 active torsions:
REMARK  status: ('A' for Active; 'I' for Inactive)
REMARK    1  A    between atoms: N_3  and  C1*_10
REMARK    2  A    between atoms: C_7  and  C_20
REMARK    3  A    between atoms: C4*_12  and  C5*_15
REMARK    4  A    between atoms: C3*_13  and  O3*_18
REMARK    5  A    between atoms: C5*_15  and  O5*_16
REMARK                            x       y       z     vdW  Elec       q    Type
REMARK                         _______ _______ _______ _____ _____    ______ ____
ROOT
ATOM      1  O   UNL     1     -62.151 -59.080 -58.573  0.00  0.00    +0.000 OA
ATOM      2  O   UNL     1     -58.707 -57.267 -61.005  0.00  0.00    +0.000 OA
ATOM      3  N   UNL     1     -61.977 -56.719 -58.668  0.00  0.00    +0.000 N 
ATOM      4  N   UNL     1     -60.455 -58.114 -59.781  0.00  0.00    +0.000 N 
ATOM      5  C   UNL     1     -61.213 -55.746 -59.201  0.00  0.00    +0.000 A 
ATOM      6  C   UNL     1     -61.603 -58.053 -58.956  0.00  0.00    +0.000 A 
ATOM      7  C   UNL     1     -60.161 -55.702 -59.950  0.00  0.00    +0.000 A 
ATOM      8  C   UNL     1     -59.690 -57.064 -60.306  0.00  0.00    +0.000 A 
ATOM      9  H   UNL     1     -60.145 -59.046 -60.014  0.00  0.00    +0.000 HD
ENDROOT
BRANCH   3  10
ATOM     10  C1* UNL     1     -63.044 -56.377 -57.889  0.00  0.00    +0.000 A 
ATOM     11  O4* UNL     1     -64.347 -56.318 -58.397  0.00  0.00    +0.000 OA
ATOM     12  C4* UNL     1     -65.177 -55.913 -57.344  0.00  0.00    +0.000 A 
ATOM     13  C3* UNL     1     -64.377 -55.720 -56.161  0.00  0.00    +0.000 A 
ATOM     14  C2* UNL     1     -63.050 -56.006 -56.530  0.00  0.00    +0.000 A 
BRANCH  13  15
ATOM     15  O3* UNL     1     -64.728 -54.796 -55.218  0.00  0.00    +0.000 OA
ATOM     16  H3* UNL     1     -64.669 -55.171 -54.322  0.00  0.00    +0.000 HD
ENDBRANCH  13  15
BRANCH  12  17
ATOM     17  C5* UNL     1     -66.523 -55.546 -57.541  0.00  0.00    +0.000 C 
BRANCH  17  18
ATOM     18  O5* UNL     1     -67.791 -55.195 -57.728  0.00  0.00    +0.000 OA
ATOM     19  H5* UNL     1     -68.367 -55.976 -57.677  0.00  0.00    +0.000 HD
ENDBRANCH  17  18
ENDBRANCH  12  17
ENDBRANCH   3  10
BRANCH   7  20
ATOM     20  C   UNL     1     -59.399 -54.548 -60.445  0.00  0.00    +0.000 C 
ATOM     21  F   UNL     1     -59.922 -54.028 -61.584  0.00  0.00    +0.000 F 
ATOM     22  F   UNL     1     -59.384 -53.531 -59.539  0.00  0.00    +0.000 F 
ATOM     23  F   UNL     1     -58.101 -54.850 -60.693  0.00  0.00    +0.000 F 
ENDBRANCH   7  20
TORSDOF 5
ENDMDL
MODEL 2
REMARK VINA RESULT:      -5.4     21.558     23.908
REMARK  Name = Trifluridine.pdbqt.pdb
REMARK  5 active torsions:
REMARK  status: ('A' for Active; 'I' for Inactive)
REMARK    1  A    between atoms: N_3  and  C1*_10
REMARK    2  A    between atoms: C_7  and  C_20
REMARK    3  A    between atoms: C4*_12  and  C5*_15
REMARK    4  A    between atoms: C3*_13  and  O3*_18
REMARK    5  A    between atoms: C5*_15  and  O5*_16
REMARK                            x       y       z     vdW  Elec       q    Type
REMARK                         _______ _______ _______ _____ _____    ______ ____
ROOT
ATOM      1  O   UNL     1     -67.491 -59.567 -38.161  0.00  0.00    +0.000 OA
ATOM      2  O   UNL     1     -67.378 -60.558 -33.681  0.00  0.00    +0.000 OA
ATOM      3  N   UNL     1     -68.091 -57.864 -36.628  0.00  0.00    +0.000 N 
ATOM      4  N   UNL     1     -67.446 -59.999 -35.907  0.00  0.00    +0.000 N 
ATOM      5  C   UNL     1     -68.217 -57.641 -35.305  0.00  0.00    +0.000 A 
ATOM      6  C   UNL     1     -67.666 -59.154 -37.020  0.00  0.00    +0.000 A 
ATOM      7  C   UNL     1     -68.047 -58.338 -34.231  0.00  0.00    +0.000 A 
ATOM      8  C   UNL     1     -67.599 -59.719 -34.543  0.00  0.00    +0.000 A 
ATOM      9  H   UNL     1     -67.142 -60.936 -36.134  0.00  0.00    +0.000 HD
ENDROOT
BRANCH   3  10
ATOM     10  C1* UNL     1     -68.379 -56.856 -37.503  0.00  0.00    +0.000 A 
ATOM     11  O4* UNL     1     -67.398 -56.268 -38.309  0.00  0.00    +0.000 OA
ATOM     12  C4* UNL     1     -68.030 -55.264 -39.054  0.00  0.00    +0.000 A 
ATOM     13  C3* UNL     1     -69.428 -55.230 -38.706  0.00  0.00    +0.000 A 
ATOM     14  C2* UNL     1     -69.618 -56.226 -37.731  0.00  0.00    +0.000 A 
BRANCH  13  15
ATOM     15  O3* UNL     1     -70.138 -54.064 -38.759  0.00  0.00    +0.000 OA
ATOM     16  H3* UNL     1     -70.281 -53.784 -39.680  0.00  0.00    +0.000 HD
ENDBRANCH  13  15
BRANCH  12  17
ATOM     17  C5* UNL     1     -67.311 -54.325 -39.820  0.00  0.00    +0.000 C 
BRANCH  17  18
ATOM     18  O5* UNL     1     -66.636 -53.441 -40.547  0.00  0.00    +0.000 OA
ATOM     19  H5* UNL     1     -66.153 -53.891 -41.260  0.00  0.00    +0.000 HD
ENDBRANCH  17  18
ENDBRANCH  12  17
ENDBRANCH   3  10
BRANCH   7  20
ATOM     20  C   UNL     1     -68.252 -57.972 -32.823  0.00  0.00    +0.000 C 
ATOM     21  F   UNL     1     -67.117 -58.074 -32.087  0.00  0.00    +0.000 F 
ATOM     22  F   UNL     1     -68.668 -56.682 -32.695  0.00  0.00    +0.000 F 
ATOM     23  F   UNL     1     -69.199 -58.734 -32.221  0.00  0.00    +0.000 F 
ENDBRANCH   7  20
TORSDOF 5
ENDMDL
MODEL 3
REMARK VINA RESULT:      -5.3     25.393     27.897
REMARK  Name = Trifluridine.pdbqt.pdb
REMARK  5 active torsions:
REMARK  status: ('A' for Active; 'I' for Inactive)
REMARK    1  A    between atoms: N_3  and  C1*_10
REMARK    2  A    between atoms: C_7  and  C_20
REMARK    3  A    between atoms: C4*_12  and  C5*_15
REMARK    4  A    between atoms: C3*_13  and  O3*_18
REMARK    5  A    between atoms: C5*_15  and  O5*_16
REMARK                            x       y       z     vdW  Elec       q    Type
REMARK                         _______ _______ _______ _____ _____    ______ ____
ROOT
ATOM      1  O   UNL     1     -70.591 -59.778 -32.442  0.00  0.00    +0.000 OA
ATOM      2  O   UNL     1     -71.963 -56.930 -29.115  0.00  0.00    +0.000 OA
ATOM      3  N   UNL     1     -69.622 -57.618 -32.355  0.00  0.00    +0.000 N 
ATOM      4  N   UNL     1     -71.230 -58.311 -30.796  0.00  0.00    +0.000 N 
ATOM      5  C   UNL     1     -69.664 -56.479 -31.637  0.00  0.00    +0.000 A 
ATOM      6  C   UNL     1     -70.470 -58.669 -31.935  0.00  0.00    +0.000 A 
ATOM      7  C   UNL     1     -70.317 -56.062 -30.603  0.00  0.00    +0.000 A 
ATOM      8  C   UNL     1     -71.241 -57.103 -30.087  0.00  0.00    +0.000 A 
ATOM      9  H   UNL     1     -71.855 -59.029 -30.456  0.00  0.00    +0.000 HD
ENDROOT
BRANCH   3  10
ATOM     10  C1* UNL     1     -68.786 -57.695 -33.432  0.00  0.00    +0.000 A 
ATOM     11  O4* UNL     1     -69.004 -56.950 -34.596  0.00  0.00    +0.000 OA
ATOM     12  C4* UNL     1     -67.984 -57.290 -35.494  0.00  0.00    +0.000 A 
ATOM     13  C3* UNL     1     -67.117 -58.262 -34.876  0.00  0.00    +0.000 A 
ATOM     14  C2* UNL     1     -67.645 -58.504 -33.595  0.00  0.00    +0.000 A 
BRANCH  13  15
ATOM     15  O3* UNL     1     -66.463 -59.198 -35.626  0.00  0.00    +0.000 OA
ATOM     16  H3* UNL     1     -65.699 -58.807 -36.084  0.00  0.00    +0.000 HD
ENDBRANCH  13  15
BRANCH  12  17
ATOM     17  C5* UNL     1     -68.002 -56.889 -36.845  0.00  0.00    +0.000 C 
BRANCH  17  18
ATOM     18  O5* UNL     1     -68.020 -56.516 -38.120  0.00  0.00    +0.000 OA
ATOM     19  H5* UNL     1     -67.432 -57.085 -38.645  0.00  0.00    +0.000 HD
ENDBRANCH  17  18
ENDBRANCH  12  17
ENDBRANCH   3  10
BRANCH   7  20
ATOM     20  C   UNL     1     -70.285 -54.759 -29.926  0.00  0.00    +0.000 C 
ATOM     21  F   UNL     1     -69.902 -54.855 -28.628  0.00  0.00    +0.000 F 
ATOM     22  F   UNL     1     -69.402 -53.907 -30.517  0.00  0.00    +0.000 F 
ATOM     23  F   UNL     1     -71.487 -54.131 -29.951  0.00  0.00    +0.000 F 
ENDBRANCH   7  20
TORSDOF 5
ENDMDL
MODEL 4
REMARK VINA RESULT:      -5.2      8.150     10.130
REMARK  Name = Trifluridine.pdbqt.pdb
REMARK  5 active torsions:
REMARK  status: ('A' for Active; 'I' for Inactive)
REMARK    1  A    between atoms: N_3  and  C1*_10
REMARK    2  A    between atoms: C_7  and  C_20
REMARK    3  A    between atoms: C4*_12  and  C5*_15
REMARK    4  A    between atoms: C3*_13  and  O3*_18
REMARK    5  A    between atoms: C5*_15  and  O5*_16
REMARK                            x       y       z     vdW  Elec       q    Type
REMARK                         _______ _______ _______ _____ _____    ______ ____
ROOT
ATOM      1  O   UNL     1     -55.164 -61.921 -66.003  0.00  0.00    +0.000 OA
ATOM      2  O   UNL     1     -53.677 -59.250 -69.426  0.00  0.00    +0.000 OA
ATOM      3  N   UNL     1     -56.337 -59.910 -66.435  0.00  0.00    +0.000 N 
ATOM      4  N   UNL     1     -54.473 -60.548 -67.708  0.00  0.00    +0.000 N 
ATOM      5  C   UNL     1     -56.322 -58.845 -67.261  0.00  0.00    +0.000 A 
ATOM      6  C   UNL     1     -55.334 -60.886 -66.637  0.00  0.00    +0.000 A 
ATOM      7  C   UNL     1     -55.588 -58.451 -68.248  0.00  0.00    +0.000 A 
ATOM      8  C   UNL     1     -54.499 -59.418 -68.536  0.00  0.00    +0.000 A 
ATOM      9  H   UNL     1     -53.737 -61.214 -67.892  0.00  0.00    +0.000 HD
ENDROOT
BRANCH   3  10
ATOM     10  C1* UNL     1     -57.293 -59.986 -65.464  0.00  0.00    +0.000 A 
ATOM     11  O4* UNL     1     -58.576 -60.483 -65.722  0.00  0.00    +0.000 OA
ATOM     12  C4* UNL     1     -59.296 -60.392 -64.523  0.00  0.00    +0.000 A 
ATOM     13  C3* UNL     1     -58.444 -59.833 -63.504  0.00  0.00    +0.000 A 
ATOM     14  C2* UNL     1     -57.205 -59.580 -64.118  0.00  0.00    +0.000 A 
BRANCH  13  15
ATOM     15  O3* UNL     1     -58.964 -59.081 -62.489  0.00  0.00    +0.000 OA
ATOM     16  H3* UNL     1     -58.323 -58.417 -62.182  0.00  0.00    +0.000 HD
ENDBRANCH  13  15
BRANCH  12  17
ATOM     17  C5* UNL     1     -60.686 -60.609 -64.459  0.00  0.00    +0.000 C 
BRANCH  17  18
ATOM     18  O5* UNL     1     -61.997 -60.818 -64.401  0.00  0.00    +0.000 OA
ATOM     19  H5* UNL     1     -62.194 -61.547 -63.789  0.00  0.00    +0.000 HD
ENDBRANCH  17  18
ENDBRANCH  12  17
ENDBRANCH   3  10
BRANCH   7  20
ATOM     20  C   UNL     1     -55.669 -57.228 -69.059  0.00  0.00    +0.000 C 
ATOM     21  F   UNL     1     -55.658 -57.485 -70.391  0.00  0.00    +0.000 F 
ATOM     22  F   UNL     1     -56.819 -56.541 -68.818  0.00  0.00    +0.000 F 
ATOM     23  F   UNL     1     -54.655 -56.366 -68.802  0.00  0.00    +0.000 F 
ENDBRANCH   7  20
TORSDOF 5
ENDMDL
MODEL 5
REMARK VINA RESULT:      -5.1     41.562     43.759
REMARK  Name = Trifluridine.pdbqt.pdb
REMARK  5 active torsions:
REMARK  status: ('A' for Active; 'I' for Inactive)
REMARK    1  A    between atoms: N_3  and  C1*_10
REMARK    2  A    between atoms: C_7  and  C_20
REMARK    3  A    between atoms: C4*_12  and  C5*_15
REMARK    4  A    between atoms: C3*_13  and  O3*_18
REMARK    5  A    between atoms: C5*_15  and  O5*_16
REMARK                            x       y       z     vdW  Elec       q    Type
REMARK                         _______ _______ _______ _____ _____    ______ ____
ROOT
ATOM      1  O   UNL     1     -63.709 -55.000 -13.166  0.00  0.00    +0.000 OA
ATOM      2  O   UNL     1     -64.460 -59.367 -11.969  0.00  0.00    +0.000 OA
ATOM      3  N   UNL     1     -64.124 -56.571 -14.889  0.00  0.00    +0.000 N 
ATOM      4  N   UNL     1     -64.100 -57.198 -12.629  0.00  0.00    +0.000 N 
ATOM      5  C   UNL     1     -64.386 -57.880 -15.073  0.00  0.00    +0.000 A 
ATOM      6  C   UNL     1     -63.955 -56.136 -13.554  0.00  0.00    +0.000 A 
ATOM      7  C   UNL     1     -64.531 -58.910 -14.307  0.00  0.00    +0.000 A 
ATOM      8  C   UNL     1     -64.369 -58.551 -12.876  0.00  0.00    +0.000 A 
ATOM      9  H   UNL     1     -63.987 -56.939 -11.660  0.00  0.00    +0.000 HD
ENDROOT
BRANCH   3  10
ATOM     10  C1* UNL     1     -64.029 -55.752 -15.977  0.00  0.00    +0.000 A 
ATOM     11  O4* UNL     1     -65.104 -54.969 -16.413  0.00  0.00    +0.000 OA
ATOM     12  C4* UNL     1     -64.670 -54.283 -17.555  0.00  0.00    +0.000 A 
ATOM     13  C3* UNL     1     -63.302 -54.643 -17.830  0.00  0.00    +0.000 A 
ATOM     14  C2* UNL     1     -62.929 -55.567 -16.838  0.00  0.00    +0.000 A 
BRANCH  13  15
ATOM     15  O3* UNL     1     -62.823 -54.657 -19.109  0.00  0.00    +0.000 OA
ATOM     16  H3* UNL     1     -62.228 -53.903 -19.267  0.00  0.00    +0.000 HD
ENDBRANCH  13  15
BRANCH  12  17
ATOM     17  C5* UNL     1     -65.552 -53.560 -18.382  0.00  0.00    +0.000 C 
BRANCH  17  18
ATOM     18  O5* UNL     1     -66.381 -52.875 -19.163  0.00  0.00    +0.000 OA
ATOM     19  H5* UNL     1     -66.882 -52.229 -18.637  0.00  0.00    +0.000 HD
ENDBRANCH  17  18
ENDBRANCH  12  17
ENDBRANCH   3  10
BRANCH   7  20
ATOM     20  C   UNL     1     -64.793 -60.315 -14.649  0.00  0.00    +0.000 C 
ATOM     21  F   UNL     1     -65.889 -60.808 -14.020  0.00  0.00    +0.000 F 
ATOM     22  F   UNL     1     -65.021 -60.473 -15.982  0.00  0.00    +0.000 F 
ATOM     23  F   UNL     1     -63.749 -61.127 -14.347  0.00  0.00    +0.000 F 
ENDBRANCH   7  20
TORSDOF 5
ENDMDL
MODEL 6
REMARK VINA RESULT:      -5.0     16.929     17.860
REMARK  Name = Trifluridine.pdbqt.pdb
REMARK  5 active torsions:
REMARK  status: ('A' for Active; 'I' for Inactive)
REMARK    1  A    between atoms: N_3  and  C1*_10
REMARK    2  A    between atoms: C_7  and  C_20
REMARK    3  A    between atoms: C4*_12  and  C5*_15
REMARK    4  A    between atoms: C3*_13  and  O3*_18
REMARK    5  A    between atoms: C5*_15  and  O5*_16
REMARK                            x       y       z     vdW  Elec       q    Type
REMARK                         _______ _______ _______ _____ _____    ______ ____
ROOT
ATOM      1  O   UNL     1     -66.833 -63.498 -75.560  0.00  0.00    +0.000 OA
ATOM      2  O   UNL     1     -63.850 -62.723 -78.960  0.00  0.00    +0.000 OA
ATOM      3  N   UNL     1     -65.675 -61.432 -75.575  0.00  0.00    +0.000 N 
ATOM      4  N   UNL     1     -65.334 -63.049 -77.240  0.00  0.00    +0.000 N 
ATOM      5  C   UNL     1     -64.760 -60.749 -76.291  0.00  0.00    +0.000 A 
ATOM      6  C   UNL     1     -66.032 -62.714 -76.054  0.00  0.00    +0.000 A 
ATOM      7  C   UNL     1     -64.075 -60.968 -77.364  0.00  0.00    +0.000 A 
ATOM      8  C   UNL     1     -64.383 -62.300 -77.944  0.00  0.00    +0.000 A 
ATOM      9  H   UNL     1     -65.553 -63.958 -77.622  0.00  0.00    +0.000 HD
ENDROOT
BRANCH   3  10
ATOM     10  C1* UNL     1     -66.193 -60.868 -74.446  0.00  0.00    +0.000 A 
ATOM     11  O4* UNL     1     -67.290 -59.999 -74.486  0.00  0.00    +0.000 OA
ATOM     12  C4* UNL     1     -67.535 -59.592 -73.168  0.00  0.00    +0.000 A 
ATOM     13  C3* UNL     1     -66.576 -60.221 -72.295  0.00  0.00    +0.000 A 
ATOM     14  C2* UNL     1     -65.746 -61.003 -73.117  0.00  0.00    +0.000 A 
BRANCH  13  15
ATOM     15  O3* UNL     1     -66.159 -59.605 -71.149  0.00  0.00    +0.000 OA
ATOM     16  H3* UNL     1     -65.312 -59.973 -70.843  0.00  0.00    +0.000 HD
ENDBRANCH  13  15
BRANCH  12  17
ATOM     17  C5* UNL     1     -68.433 -58.554 -72.853  0.00  0.00    +0.000 C 
BRANCH  17  18
ATOM     18  O5* UNL     1     -69.278 -57.571 -72.557  0.00  0.00    +0.000 OA
ATOM     19  H5* UNL     1     -70.099 -57.668 -73.069  0.00  0.00    +0.000 HD
ENDBRANCH  17  18
ENDBRANCH  12  17
ENDBRANCH   3  10
BRANCH   7  20
ATOM     20  C   UNL     1     -63.071 -60.130 -78.034  0.00  0.00    +0.000 C 
ATOM     21  F   UNL     1     -63.474 -59.711 -79.259  0.00  0.00    +0.000 F 
ATOM     22  F   UNL     1     -62.801 -59.003 -77.319  0.00  0.00    +0.000 F 
ATOM     23  F   UNL     1     -61.884 -60.768 -78.191  0.00  0.00    +0.000 F 
ENDBRANCH   7  20
TORSDOF 5
ENDMDL
MODEL 7
REMARK VINA RESULT:      -4.9      9.638     10.148
REMARK  Name = Trifluridine.pdbqt.pdb
REMARK  5 active torsions:
REMARK  status: ('A' for Active; 'I' for Inactive)
REMARK    1  A    between atoms: N_3  and  C1*_10
REMARK    2  A    between atoms: C_7  and  C_20
REMARK    3  A    between atoms: C4*_12  and  C5*_15
REMARK    4  A    between atoms: C3*_13  and  O3*_18
REMARK    5  A    between atoms: C5*_15  and  O5*_16
REMARK                            x       y       z     vdW  Elec       q    Type
REMARK                         _______ _______ _______ _____ _____    ______ ____
ROOT
ATOM      1  O   UNL     1     -64.957 -46.204 -56.124  0.00  0.00    +0.000 OA
ATOM      2  O   UNL     1     -60.806 -45.947 -58.065  0.00  0.00    +0.000 OA
ATOM      3  N   UNL     1     -64.805 -46.492 -58.470  0.00  0.00    +0.000 N 
ATOM      4  N   UNL     1     -62.907 -46.095 -57.152  0.00  0.00    +0.000 N 
ATOM      5  C   UNL     1     -63.898 -46.512 -59.467  0.00  0.00    +0.000 A 
ATOM      6  C   UNL     1     -64.312 -46.264 -57.164  0.00  0.00    +0.000 A 
ATOM      7  C   UNL     1     -62.618 -46.365 -59.554  0.00  0.00    +0.000 A 
ATOM      8  C   UNL     1     -62.007 -46.119 -58.224  0.00  0.00    +0.000 A 
ATOM      9  H   UNL     1     -62.505 -45.927 -56.240  0.00  0.00    +0.000 HD
ENDROOT
BRANCH   3  10
ATOM     10  C1* UNL     1     -66.124 -46.681 -58.766  0.00  0.00    +0.000 A 
ATOM     11  O4* UNL     1     -66.980 -47.398 -57.922  0.00  0.00    +0.000 OA
ATOM     12  C4* UNL     1     -68.237 -47.419 -58.539  0.00  0.00    +0.000 A 
ATOM     13  C3* UNL     1     -68.162 -46.700 -59.786  0.00  0.00    +0.000 A 
ATOM     14  C2* UNL     1     -66.832 -46.258 -59.908  0.00  0.00    +0.000 A 
BRANCH  13  15
ATOM     15  O3* UNL     1     -68.957 -47.041 -60.843  0.00  0.00    +0.000 OA
ATOM     16  H3* UNL     1     -69.616 -47.708 -60.583  0.00  0.00    +0.000 HD
ENDBRANCH  13  15
BRANCH  12  17
ATOM     17  C5* UNL     1     -69.292 -48.229 -58.076  0.00  0.00    +0.000 C 
BRANCH  17  18
ATOM     18  O5* UNL     1     -70.286 -48.994 -57.634  0.00  0.00    +0.000 OA
ATOM     19  H5* UNL     1     -70.977 -48.445 -57.227  0.00  0.00    +0.000 HD
ENDBRANCH  17  18
ENDBRANCH  12  17
ENDBRANCH   3  10
BRANCH   7  20
ATOM     20  C   UNL     1     -61.742 -46.384 -60.734  0.00  0.00    +0.000 C 
ATOM     21  F   UNL     1     -60.584 -47.055 -60.512  0.00  0.00    +0.000 F 
ATOM     22  F   UNL     1     -62.337 -47.000 -61.792  0.00  0.00    +0.000 F 
ATOM     23  F   UNL     1     -61.417 -45.138 -61.159  0.00  0.00    +0.000 F 
ENDBRANCH   7  20
TORSDOF 5
ENDMDL
MODEL 8
REMARK VINA RESULT:      -4.9      9.434     11.356
REMARK  Name = Trifluridine.pdbqt.pdb
REMARK  5 active torsions:
REMARK  status: ('A' for Active; 'I' for Inactive)
REMARK    1  A    between atoms: N_3  and  C1*_10
REMARK    2  A    between atoms: C_7  and  C_20
REMARK    3  A    between atoms: C4*_12  and  C5*_15
REMARK    4  A    between atoms: C3*_13  and  O3*_18
REMARK    5  A    between atoms: C5*_15  and  O5*_16
REMARK                            x       y       z     vdW  Elec       q    Type
REMARK                         _______ _______ _______ _____ _____    ______ ____
ROOT
ATOM      1  O   UNL     1     -63.703 -44.473 -54.734  0.00  0.00    +0.000 OA
ATOM      2  O   UNL     1     -64.591 -47.582 -51.477  0.00  0.00    +0.000 OA
ATOM      3  N   UNL     1     -63.979 -46.731 -55.395  0.00  0.00    +0.000 N 
ATOM      4  N   UNL     1     -64.157 -46.073 -53.151  0.00  0.00    +0.000 N 
ATOM      5  C   UNL     1     -64.235 -47.950 -54.881  0.00  0.00    +0.000 A 
ATOM      6  C   UNL     1     -63.924 -45.652 -54.482  0.00  0.00    +0.000 A 
ATOM      7  C   UNL     1     -64.454 -48.427 -53.701  0.00  0.00    +0.000 A 
ATOM      8  C   UNL     1     -64.415 -47.362 -52.667  0.00  0.00    +0.000 A 
ATOM      9  H   UNL     1     -64.126 -45.339 -52.459  0.00  0.00    +0.000 HD
ENDROOT
BRANCH   3  10
ATOM     10  C1* UNL     1     -63.783 -46.604 -56.740  0.00  0.00    +0.000 A 
ATOM     11  O4* UNL     1     -62.557 -46.903 -57.344  0.00  0.00    +0.000 OA
ATOM     12  C4* UNL     1     -62.701 -46.638 -58.712  0.00  0.00    +0.000 A 
ATOM     13  C3* UNL     1     -64.040 -46.168 -58.962  0.00  0.00    +0.000 A 
ATOM     14  C2* UNL     1     -64.691 -46.147 -57.716  0.00  0.00    +0.000 A 
BRANCH  13  15
ATOM     15  O3* UNL     1     -64.300 -45.291 -59.977  0.00  0.00    +0.000 OA
ATOM     16  H3* UNL     1     -65.059 -44.722 -59.761  0.00  0.00    +0.000 HD
ENDBRANCH  13  15
BRANCH  12  17
ATOM     17  C5* UNL     1     -61.606 -46.627 -59.599  0.00  0.00    +0.000 C 
BRANCH  17  18
ATOM     18  O5* UNL     1     -60.574 -46.622 -60.437  0.00  0.00    +0.000 OA
ATOM     19  H5* UNL     1     -59.764 -46.892 -59.973  0.00  0.00    +0.000 HD
ENDBRANCH  17  18
ENDBRANCH  12  17
ENDBRANCH   3  10
BRANCH   7  20
ATOM     20  C   UNL     1     -64.698 -49.810 -53.270  0.00  0.00    +0.000 C 
ATOM     21  F   UNL     1     -63.776 -50.247 -52.376  0.00  0.00    +0.000 F 
ATOM     22  F   UNL     1     -65.907 -49.941 -52.658  0.00  0.00    +0.000 F 
ATOM     23  F   UNL     1     -64.706 -50.684 -54.307  0.00  0.00    +0.000 F 
ENDBRANCH   7  20
TORSDOF 5
ENDMDL
MODEL 9
REMARK VINA RESULT:      -4.9     19.528     21.983
REMARK  Name = Trifluridine.pdbqt.pdb
REMARK  5 active torsions:
REMARK  status: ('A' for Active; 'I' for Inactive)
REMARK    1  A    between atoms: N_3  and  C1*_10
REMARK    2  A    between atoms: C_7  and  C_20
REMARK    3  A    between atoms: C4*_12  and  C5*_15
REMARK    4  A    between atoms: C3*_13  and  O3*_18
REMARK    5  A    between atoms: C5*_15  and  O5*_16
REMARK                            x       y       z     vdW  Elec       q    Type
REMARK                         _______ _______ _______ _____ _____    ______ ____
ROOT
ATOM      1  O   UNL     1     -71.058 -55.775 -37.447  0.00  0.00    +0.000 OA
ATOM      2  O   UNL     1     -69.489 -53.530 -41.129  0.00  0.00    +0.000 OA
ATOM      3  N   UNL     1     -68.794 -56.096 -38.066  0.00  0.00    +0.000 N 
ATOM      4  N   UNL     1     -70.212 -54.673 -39.274  0.00  0.00    +0.000 N 
ATOM      5  C   UNL     1     -67.895 -55.706 -38.991  0.00  0.00    +0.000 A 
ATOM      6  C   UNL     1     -70.096 -55.555 -38.174  0.00  0.00    +0.000 A 
ATOM      7  C   UNL     1     -67.907 -54.923 -40.018  0.00  0.00    +0.000 A 
ATOM      8  C   UNL     1     -69.242 -54.304 -40.215  0.00  0.00    +0.000 A 
ATOM      9  H   UNL     1     -71.126 -54.260 -39.397  0.00  0.00    +0.000 HD
ENDROOT
BRANCH   3  10
ATOM     10  C1* UNL     1     -68.412 -56.979 -37.097  0.00  0.00    +0.000 A 
ATOM     11  O4* UNL     1     -68.530 -56.684 -35.734  0.00  0.00    +0.000 OA
ATOM     12  C4* UNL     1     -68.026 -57.787 -35.034  0.00  0.00    +0.000 A 
ATOM     13  C3* UNL     1     -67.590 -58.786 -35.978  0.00  0.00    +0.000 A 
ATOM     14  C2* UNL     1     -67.833 -58.254 -37.257  0.00  0.00    +0.000 A 
BRANCH  13  15
ATOM     15  O3* UNL     1     -66.558 -59.630 -35.682  0.00  0.00    +0.000 OA
ATOM     16  H3* UNL     1     -66.718 -60.518 -36.045  0.00  0.00    +0.000 HD
ENDBRANCH  13  15
BRANCH  12  17
ATOM     17  C5* UNL     1     -67.794 -57.759 -33.645  0.00  0.00    +0.000 C 
BRANCH  17  18
ATOM     18  O5* UNL     1     -67.576 -57.726 -32.334  0.00  0.00    +0.000 OA
ATOM     19  H5* UNL     1     -67.281 -58.598 -32.021  0.00  0.00    +0.000 HD
ENDBRANCH  17  18
ENDBRANCH  12  17
ENDBRANCH   3  10
BRANCH   7  20
ATOM     20  C   UNL     1     -66.841 -54.603 -40.977  0.00  0.00    +0.000 C 
ATOM     21  F   UNL     1     -67.206 -54.841 -42.261  0.00  0.00    +0.000 F 
ATOM     22  F   UNL     1     -66.493 -53.288 -40.921  0.00  0.00    +0.000 F 
ATOM     23  F   UNL     1     -65.703 -55.303 -40.740  0.00  0.00    +0.000 F 
ENDBRANCH   7  20
TORSDOF 5
ENDMDL
