MODEL 1
REMARK VINA RESULT:      -6.8      0.000      0.000
REMARK  Name = Troglitazone.pdbqt.pdb
REMARK  4 active torsions:
REMARK  status: ('A' for Active; 'I' for Inactive)
REMARK    1  A    between atoms: C_1  and  O_2
REMARK    2  A    between atoms: C_1  and  C_18
REMARK    3  A    between atoms: O_2  and  C_3
REMARK    4  A    between atoms: C_26  and  O_32
REMARK                            x       y       z     vdW  Elec       q    Type
REMARK                         _______ _______ _______ _____ _____    ______ ____
ROOT
ATOM      1  C   UNL     1     -63.647 -55.160 -15.140  0.00  0.00    +0.000 C 
ENDROOT
BRANCH   1   2
ATOM      2  C   UNL     1     -63.174 -56.214 -14.227  0.00  0.00    +0.000 C 
ATOM      3  O   UNL     1     -64.051 -57.382 -14.423  0.00  0.00    +0.000 OA
ATOM      4  C   UNL     1     -64.397 -58.269 -13.396  0.00  0.00    +0.000 A 
ATOM      5  C   UNL     1     -64.328 -57.949 -12.008  0.00  0.00    +0.000 A 
ATOM      6  C   UNL     1     -64.898 -59.529 -13.787  0.00  0.00    +0.000 A 
ATOM      7  C   UNL     1     -63.826 -56.650 -11.732  0.00  0.00    +0.000 C 
ATOM      8  C   UNL     1     -64.719 -58.866 -11.026  0.00  0.00    +0.000 A 
ATOM      9  C   UNL     1     -63.270 -55.807 -12.831  0.00  0.00    +0.000 C 
ATOM     10  C   UNL     1     -65.198 -60.123 -11.425  0.00  0.00    +0.000 A 
ATOM     11  C   UNL     1     -64.635 -58.499  -9.559  0.00  0.00    +0.000 C 
ATOM     12  C   UNL     1     -65.290 -60.454 -12.794  0.00  0.00    +0.000 A 
ATOM     13  C   UNL     1     -65.842 -61.844 -13.110  0.00  0.00    +0.000 C 
ATOM     14  C   UNL     1     -65.017 -59.844 -15.273  0.00  0.00    +0.000 C 
ATOM     15  C   UNL     1     -61.736 -56.670 -14.577  0.00  0.00    +0.000 C 
BRANCH  10  16
ATOM     16  O   UNL     1     -65.593 -61.048 -10.473  0.00  0.00    +0.000 OA
ATOM     17  H   UNL     1     -64.956 -61.795 -10.488  0.00  0.00    +0.000 HD
ENDBRANCH  10  16
ENDBRANCH   1   2
BRANCH   1  18
ATOM     18  O   UNL     1     -64.066 -54.199 -15.965  0.00  0.00    +0.000 OA
BRANCH  18  19
ATOM     19  C   UNL     1     -63.538 -54.260 -17.231  0.00  0.00    +0.000 C 
ATOM     20  C   UNL     1     -62.343 -54.904 -17.559  0.00  0.00    +0.000 C 
ATOM     21  C   UNL     1     -61.891 -54.917 -18.876  0.00  0.00    +0.000 C 
ATOM     22  C   UNL     1     -62.634 -54.286 -19.869  0.00  0.00    +0.000 C 
ATOM     23  C   UNL     1     -63.827 -53.641 -19.549  0.00  0.00    +0.000 C 
ATOM     24  C   UNL     1     -64.279 -53.630 -18.231  0.00  0.00    +0.000 C 
ATOM     25  C   UNL     1     -62.175 -54.300 -21.217  0.00  0.00    +0.000 C 
ATOM     26  C   UNL     1     -61.721 -54.302 -22.555  0.00  0.00    +0.000 C 
ATOM     27  S   UNL     1     -60.978 -55.643 -23.341  0.00  0.00    +0.000 S 
ATOM     28  C   UNL     1     -60.801 -54.753 -24.840  0.00  0.00    +0.000 C 
ATOM     29  O   UNL     1     -60.308 -55.211 -25.857  0.00  0.00    +0.000 OA
ATOM     30  N   UNL     1     -61.295 -53.498 -24.692  0.00  0.00    +0.000 N 
ATOM     31  C   UNL     1     -61.827 -53.157 -23.483  0.00  0.00    +0.000 C 
ATOM     32  H   UNL     1     -61.280 -52.844 -25.458  0.00  0.00    +0.000 HD
ATOM     33  O   UNL     1     -62.317 -52.073 -23.217  0.00  0.00    +0.000 OA
ENDBRANCH  18  19
ENDBRANCH   1  18
TORSDOF 4
ENDMDL
MODEL 2
REMARK VINA RESULT:      -6.7     17.553     22.153
REMARK  Name = Troglitazone.pdbqt.pdb
REMARK  4 active torsions:
REMARK  status: ('A' for Active; 'I' for Inactive)
REMARK    1  A    between atoms: C_1  and  O_2
REMARK    2  A    between atoms: C_1  and  C_18
REMARK    3  A    between atoms: O_2  and  C_3
REMARK    4  A    between atoms: C_26  and  O_32
REMARK                            x       y       z     vdW  Elec       q    Type
REMARK                         _______ _______ _______ _____ _____    ______ ____
ROOT
ATOM      1  C   UNL     1     -69.914 -55.753 -38.164  0.00  0.00    +0.000 C 
ENDROOT
BRANCH   1   2
ATOM      2  C   UNL     1     -70.202 -56.640 -37.024  0.00  0.00    +0.000 C 
ATOM      3  O   UNL     1     -70.728 -55.794 -35.939  0.00  0.00    +0.000 OA
ATOM      4  C   UNL     1     -70.502 -56.049 -34.581  0.00  0.00    +0.000 A 
ATOM      5  C   UNL     1     -69.430 -56.850 -34.088  0.00  0.00    +0.000 A 
ATOM      6  C   UNL     1     -71.366 -55.416 -33.662  0.00  0.00    +0.000 A 
ATOM      7  C   UNL     1     -68.615 -57.423 -35.099  0.00  0.00    +0.000 C 
ATOM      8  C   UNL     1     -69.234 -57.045 -32.715  0.00  0.00    +0.000 A 
ATOM      9  C   UNL     1     -69.001 -57.306 -36.535  0.00  0.00    +0.000 C 
ATOM     10  C   UNL     1     -70.111 -56.425 -31.812  0.00  0.00    +0.000 A 
ATOM     11  C   UNL     1     -68.087 -57.900 -32.220  0.00  0.00    +0.000 C 
ATOM     12  C   UNL     1     -71.168 -55.616 -32.278  0.00  0.00    +0.000 A 
ATOM     13  C   UNL     1     -72.048 -54.979 -31.202  0.00  0.00    +0.000 C 
ATOM     14  C   UNL     1     -72.478 -54.521 -34.197  0.00  0.00    +0.000 C 
ATOM     15  C   UNL     1     -71.309 -57.668 -37.367  0.00  0.00    +0.000 C 
BRANCH  10  16
ATOM     16  O   UNL     1     -69.937 -56.600 -30.448  0.00  0.00    +0.000 OA
ATOM     17  H   UNL     1     -70.426 -55.886 -29.983  0.00  0.00    +0.000 HD
ENDBRANCH  10  16
ENDBRANCH   1   2
BRANCH   1  18
ATOM     18  O   UNL     1     -69.649 -54.942 -39.189  0.00  0.00    +0.000 OA
BRANCH  18  19
ATOM     19  C   UNL     1     -68.668 -55.392 -40.038  0.00  0.00    +0.000 C 
ATOM     20  C   UNL     1     -68.804 -56.486 -40.894  0.00  0.00    +0.000 C 
ATOM     21  C   UNL     1     -67.752 -56.863 -41.725  0.00  0.00    +0.000 C 
ATOM     22  C   UNL     1     -66.560 -56.145 -41.700  0.00  0.00    +0.000 C 
ATOM     23  C   UNL     1     -66.417 -55.053 -40.847  0.00  0.00    +0.000 C 
ATOM     24  C   UNL     1     -67.471 -54.676 -40.018  0.00  0.00    +0.000 C 
ATOM     25  C   UNL     1     -65.483 -56.527 -42.550  0.00  0.00    +0.000 C 
ATOM     26  C   UNL     1     -64.407 -56.906 -43.384  0.00  0.00    +0.000 C 
ATOM     27  S   UNL     1     -64.566 -57.448 -45.012  0.00  0.00    +0.000 S 
ATOM     28  C   UNL     1     -62.834 -57.646 -45.186  0.00  0.00    +0.000 C 
ATOM     29  O   UNL     1     -62.286 -58.029 -46.206  0.00  0.00    +0.000 OA
ATOM     30  N   UNL     1     -62.213 -57.309 -44.028  0.00  0.00    +0.000 N 
ATOM     31  C   UNL     1     -62.984 -56.884 -42.987  0.00  0.00    +0.000 C 
ATOM     32  H   UNL     1     -61.209 -57.358 -43.948  0.00  0.00    +0.000 HD
ATOM     33  O   UNL     1     -62.558 -56.536 -41.899  0.00  0.00    +0.000 OA
ENDBRANCH  18  19
ENDBRANCH   1  18
TORSDOF 4
ENDMDL
MODEL 3
REMARK VINA RESULT:      -6.5     14.123     17.603
REMARK  Name = Troglitazone.pdbqt.pdb
REMARK  4 active torsions:
REMARK  status: ('A' for Active; 'I' for Inactive)
REMARK    1  A    between atoms: C_1  and  O_2
REMARK    2  A    between atoms: C_1  and  C_18
REMARK    3  A    between atoms: O_2  and  C_3
REMARK    4  A    between atoms: C_26  and  O_32
REMARK                            x       y       z     vdW  Elec       q    Type
REMARK                         _______ _______ _______ _____ _____    ______ ____
ROOT
ATOM      1  C   UNL     1     -70.176 -57.439 -31.124  0.00  0.00    +0.000 C 
ENDROOT
BRANCH   1   2
ATOM      2  C   UNL     1     -70.833 -56.434 -30.272  0.00  0.00    +0.000 C 
ATOM      3  O   UNL     1     -71.161 -57.095 -28.997  0.00  0.00    +0.000 OA
ATOM      4  C   UNL     1     -72.291 -56.783 -28.232  0.00  0.00    +0.000 A 
ATOM      5  C   UNL     1     -73.454 -56.143 -28.754  0.00  0.00    +0.000 A 
ATOM      6  C   UNL     1     -72.278 -57.190 -26.881  0.00  0.00    +0.000 A 
ATOM      7  C   UNL     1     -73.364 -55.794 -30.126  0.00  0.00    +0.000 C 
ATOM      8  C   UNL     1     -74.570 -55.884 -27.948  0.00  0.00    +0.000 A 
ATOM      9  C   UNL     1     -72.075 -55.949 -30.860  0.00  0.00    +0.000 C 
ATOM     10  C   UNL     1     -74.538 -56.276 -26.601  0.00  0.00    +0.000 A 
ATOM     11  C   UNL     1     -75.791 -55.202 -28.528  0.00  0.00    +0.000 C 
ATOM     12  C   UNL     1     -73.403 -56.926 -26.070  0.00  0.00    +0.000 A 
ATOM     13  C   UNL     1     -73.489 -57.321 -24.596  0.00  0.00    +0.000 C 
ATOM     14  C   UNL     1     -71.052 -57.919 -26.346  0.00  0.00    +0.000 C 
ATOM     15  C   UNL     1     -69.880 -55.261 -29.934  0.00  0.00    +0.000 C 
BRANCH  10  16
ATOM     16  O   UNL     1     -75.629 -56.034 -25.784  0.00  0.00    +0.000 OA
ATOM     17  H   UNL     1     -75.334 -56.103 -24.850  0.00  0.00    +0.000 HD
ENDBRANCH  10  16
ENDBRANCH   1   2
BRANCH   1  18
ATOM     18  O   UNL     1     -69.572 -58.349 -31.890  0.00  0.00    +0.000 OA
BRANCH  18  19
ATOM     19  C   UNL     1     -69.277 -57.924 -33.162  0.00  0.00    +0.000 C 
ATOM     20  C   UNL     1     -69.869 -56.823 -33.784  0.00  0.00    +0.000 C 
ATOM     21  C   UNL     1     -69.499 -56.465 -35.078  0.00  0.00    +0.000 C 
ATOM     22  C   UNL     1     -68.535 -57.209 -35.753  0.00  0.00    +0.000 C 
ATOM     23  C   UNL     1     -67.941 -58.309 -35.138  0.00  0.00    +0.000 C 
ATOM     24  C   UNL     1     -68.312 -58.665 -33.843  0.00  0.00    +0.000 C 
ATOM     25  C   UNL     1     -68.153 -56.844 -37.075  0.00  0.00    +0.000 C 
ATOM     26  C   UNL     1     -67.776 -56.492 -38.391  0.00  0.00    +0.000 C 
ATOM     27  S   UNL     1     -67.571 -54.879 -38.959  0.00  0.00    +0.000 S 
ATOM     28  C   UNL     1     -67.127 -55.429 -40.563  0.00  0.00    +0.000 C 
ATOM     29  O   UNL     1     -66.834 -54.688 -41.486  0.00  0.00    +0.000 OA
ATOM     30  N   UNL     1     -67.155 -56.784 -40.609  0.00  0.00    +0.000 N 
ATOM     31  C   UNL     1     -67.490 -57.458 -39.472  0.00  0.00    +0.000 C 
ATOM     32  H   UNL     1     -66.922 -57.276 -41.457  0.00  0.00    +0.000 HD
ATOM     33  O   UNL     1     -67.541 -58.672 -39.369  0.00  0.00    +0.000 OA
ENDBRANCH  18  19
ENDBRANCH   1  18
TORSDOF 4
ENDMDL
MODEL 4
REMARK VINA RESULT:      -6.5     14.251     18.599
REMARK  Name = Troglitazone.pdbqt.pdb
REMARK  4 active torsions:
REMARK  status: ('A' for Active; 'I' for Inactive)
REMARK    1  A    between atoms: C_1  and  O_2
REMARK    2  A    between atoms: C_1  and  C_18
REMARK    3  A    between atoms: O_2  and  C_3
REMARK    4  A    between atoms: C_26  and  O_32
REMARK                            x       y       z     vdW  Elec       q    Type
REMARK                         _______ _______ _______ _____ _____    ______ ____
ROOT
ATOM      1  C   UNL     1     -68.780 -48.098 -32.098  0.00  0.00    +0.000 C 
ENDROOT
BRANCH   1   2
ATOM      2  C   UNL     1     -68.359 -48.907 -30.941  0.00  0.00    +0.000 C 
ATOM      3  O   UNL     1     -68.537 -48.073 -29.740  0.00  0.00    +0.000 OA
ATOM      4  C   UNL     1     -67.705 -48.147 -28.617  0.00  0.00    +0.000 A 
ATOM      5  C   UNL     1     -66.382 -48.680 -28.639  0.00  0.00    +0.000 A 
ATOM      6  C   UNL     1     -68.206 -47.600 -27.417  0.00  0.00    +0.000 A 
ATOM      7  C   UNL     1     -65.976 -49.186 -29.901  0.00  0.00    +0.000 C 
ATOM      8  C   UNL     1     -65.582 -48.699 -27.490  0.00  0.00    +0.000 A 
ATOM      9  C   UNL     1     -66.954 -49.285 -31.024  0.00  0.00    +0.000 C 
ATOM     10  C   UNL     1     -66.099 -48.170 -26.297  0.00  0.00    +0.000 A 
ATOM     11  C   UNL     1     -64.182 -49.272 -27.541  0.00  0.00    +0.000 C 
ATOM     12  C   UNL     1     -67.399 -47.623 -26.258  0.00  0.00    +0.000 A 
ATOM     13  C   UNL     1     -67.847 -47.061 -24.909  0.00  0.00    +0.000 C 
ATOM     14  C   UNL     1     -69.601 -46.987 -27.415  0.00  0.00    +0.000 C 
ATOM     15  C   UNL     1     -69.261 -50.153 -30.759  0.00  0.00    +0.000 C 
BRANCH  10  16
ATOM     16  O   UNL     1     -65.327 -48.175 -25.147  0.00  0.00    +0.000 OA
ATOM     17  H   UNL     1     -65.890 -48.478 -24.401  0.00  0.00    +0.000 HD
ENDBRANCH  10  16
ENDBRANCH   1   2
BRANCH   1  18
ATOM     18  O   UNL     1     -69.170 -47.370 -33.145  0.00  0.00    +0.000 OA
BRANCH  18  19
ATOM     19  C   UNL     1     -68.225 -47.232 -34.131  0.00  0.00    +0.000 C 
ATOM     20  C   UNL     1     -67.223 -46.259 -34.136  0.00  0.00    +0.000 C 
ATOM     21  C   UNL     1     -66.303 -46.203 -35.180  0.00  0.00    +0.000 C 
ATOM     22  C   UNL     1     -66.384 -47.122 -36.223  0.00  0.00    +0.000 C 
ATOM     23  C   UNL     1     -67.382 -48.094 -36.225  0.00  0.00    +0.000 C 
ATOM     24  C   UNL     1     -68.300 -48.150 -35.179  0.00  0.00    +0.000 C 
ATOM     25  C   UNL     1     -65.444 -47.068 -37.291  0.00  0.00    +0.000 C 
ATOM     26  C   UNL     1     -64.519 -47.014 -38.358  0.00  0.00    +0.000 C 
ATOM     27  S   UNL     1     -62.838 -46.681 -38.189  0.00  0.00    +0.000 S 
ATOM     28  C   UNL     1     -62.565 -46.835 -39.913  0.00  0.00    +0.000 C 
ATOM     29  O   UNL     1     -61.478 -46.706 -40.451  0.00  0.00    +0.000 OA
ATOM     30  N   UNL     1     -63.733 -47.122 -40.541  0.00  0.00    +0.000 N 
ATOM     31  C   UNL     1     -64.856 -47.248 -39.778  0.00  0.00    +0.000 C 
ATOM     32  H   UNL     1     -63.764 -47.251 -41.540  0.00  0.00    +0.000 HD
ATOM     33  O   UNL     1     -65.965 -47.518 -40.208  0.00  0.00    +0.000 OA
ENDBRANCH  18  19
ENDBRANCH   1  18
TORSDOF 4
ENDMDL
MODEL 5
REMARK VINA RESULT:      -6.5     12.945     16.092
REMARK  Name = Troglitazone.pdbqt.pdb
REMARK  4 active torsions:
REMARK  status: ('A' for Active; 'I' for Inactive)
REMARK    1  A    between atoms: C_1  and  O_2
REMARK    2  A    between atoms: C_1  and  C_18
REMARK    3  A    between atoms: O_2  and  C_3
REMARK    4  A    between atoms: C_26  and  O_32
REMARK                            x       y       z     vdW  Elec       q    Type
REMARK                         _______ _______ _______ _____ _____    ______ ____
ROOT
ATOM      1  C   UNL     1     -71.755 -56.031 -29.658  0.00  0.00    +0.000 C 
ENDROOT
BRANCH   1   2
ATOM      2  C   UNL     1     -72.487 -56.933 -28.753  0.00  0.00    +0.000 C 
ATOM      3  O   UNL     1     -73.120 -56.092 -27.722  0.00  0.00    +0.000 OA
ATOM      4  C   UNL     1     -73.308 -56.504 -26.397  0.00  0.00    +0.000 A 
ATOM      5  C   UNL     1     -72.564 -57.549 -25.774  0.00  0.00    +0.000 A 
ATOM      6  C   UNL     1     -74.255 -55.786 -25.636  0.00  0.00    +0.000 A 
ATOM      7  C   UNL     1     -71.629 -58.190 -26.627  0.00  0.00    +0.000 C 
ATOM      8  C   UNL     1     -72.774 -57.897 -24.434  0.00  0.00    +0.000 A 
ATOM      9  C   UNL     1     -71.596 -57.873 -28.084  0.00  0.00    +0.000 C 
ATOM     10  C   UNL     1     -73.732 -57.189 -23.692  0.00  0.00    +0.000 A 
ATOM     11  C   UNL     1     -71.970 -59.012 -23.797  0.00  0.00    +0.000 C 
ATOM     12  C   UNL     1     -74.466 -56.141 -24.285  0.00  0.00    +0.000 A 
ATOM     13  C   UNL     1     -75.469 -55.430 -23.376  0.00  0.00    +0.000 C 
ATOM     14  C   UNL     1     -75.009 -54.638 -26.296  0.00  0.00    +0.000 C 
ATOM     15  C   UNL     1     -73.630 -57.675 -29.488  0.00  0.00    +0.000 C 
BRANCH  10  16
ATOM     16  O   UNL     1     -73.956 -57.512 -22.364  0.00  0.00    +0.000 OA
ATOM     17  H   UNL     1     -74.778 -58.047 -22.313  0.00  0.00    +0.000 HD
ENDBRANCH  10  16
ENDBRANCH   1   2
BRANCH   1  18
ATOM     18  O   UNL     1     -71.101 -55.214 -30.485  0.00  0.00    +0.000 OA
BRANCH  18  19
ATOM     19  C   UNL     1     -70.540 -55.831 -31.576  0.00  0.00    +0.000 C 
ATOM     20  C   UNL     1     -69.499 -56.759 -31.510  0.00  0.00    +0.000 C 
ATOM     21  C   UNL     1     -69.000 -57.338 -32.674  0.00  0.00    +0.000 C 
ATOM     22  C   UNL     1     -69.541 -56.989 -33.908  0.00  0.00    +0.000 C 
ATOM     23  C   UNL     1     -70.580 -56.062 -33.981  0.00  0.00    +0.000 C 
ATOM     24  C   UNL     1     -71.079 -55.486 -32.815  0.00  0.00    +0.000 C 
ATOM     25  C   UNL     1     -69.033 -57.580 -35.099  0.00  0.00    +0.000 C 
ATOM     26  C   UNL     1     -68.528 -58.157 -36.286  0.00  0.00    +0.000 C 
ATOM     27  S   UNL     1     -68.058 -59.805 -36.458  0.00  0.00    +0.000 S 
ATOM     28  C   UNL     1     -67.622 -59.576 -38.140  0.00  0.00    +0.000 C 
ATOM     29  O   UNL     1     -67.193 -60.457 -38.865  0.00  0.00    +0.000 OA
ATOM     30  N   UNL     1     -67.838 -58.286 -38.500  0.00  0.00    +0.000 N 
ATOM     31  C   UNL     1     -68.339 -57.434 -37.561  0.00  0.00    +0.000 C 
ATOM     32  H   UNL     1     -67.645 -57.973 -39.438  0.00  0.00    +0.000 HD
ATOM     33  O   UNL     1     -68.595 -56.257 -37.752  0.00  0.00    +0.000 OA
ENDBRANCH  18  19
ENDBRANCH   1  18
TORSDOF 4
ENDMDL
MODEL 6
REMARK VINA RESULT:      -6.3     12.584     18.125
REMARK  Name = Troglitazone.pdbqt.pdb
REMARK  4 active torsions:
REMARK  status: ('A' for Active; 'I' for Inactive)
REMARK    1  A    between atoms: C_1  and  O_2
REMARK    2  A    between atoms: C_1  and  C_18
REMARK    3  A    between atoms: O_2  and  C_3
REMARK    4  A    between atoms: C_26  and  O_32
REMARK                            x       y       z     vdW  Elec       q    Type
REMARK                         _______ _______ _______ _____ _____    ______ ____
ROOT
ATOM      1  C   UNL     1     -73.064 -55.300 -29.914  0.00  0.00    +0.000 C 
ENDROOT
BRANCH   1   2
ATOM      2  C   UNL     1     -71.732 -55.117 -30.515  0.00  0.00    +0.000 C 
ATOM      3  O   UNL     1     -71.854 -55.439 -31.947  0.00  0.00    +0.000 OA
ATOM      4  C   UNL     1     -70.829 -56.028 -32.698  0.00  0.00    +0.000 A 
ATOM      5  C   UNL     1     -69.749 -56.766 -32.130  0.00  0.00    +0.000 A 
ATOM      6  C   UNL     1     -70.926 -55.919 -34.101  0.00  0.00    +0.000 A 
ATOM      7  C   UNL     1     -69.761 -56.824 -30.713  0.00  0.00    +0.000 C 
ATOM      8  C   UNL     1     -68.768 -57.361 -32.933  0.00  0.00    +0.000 A 
ATOM      9  C   UNL     1     -70.744 -56.017 -29.933  0.00  0.00    +0.000 C 
ATOM     10  C   UNL     1     -68.864 -57.231 -34.327  0.00  0.00    +0.000 A 
ATOM     11  C   UNL     1     -67.632 -58.139 -32.304  0.00  0.00    +0.000 C 
ATOM     12  C   UNL     1     -69.934 -56.518 -34.909  0.00  0.00    +0.000 A 
ATOM     13  C   UNL     1     -69.944 -56.457 -36.437  0.00  0.00    +0.000 C 
ATOM     14  C   UNL     1     -72.111 -55.172 -34.700  0.00  0.00    +0.000 C 
ATOM     15  C   UNL     1     -71.264 -53.643 -30.427  0.00  0.00    +0.000 C 
BRANCH  10  16
ATOM     16  O   UNL     1     -67.908 -57.811 -35.144  0.00  0.00    +0.000 OA
ATOM     17  H   UNL     1     -68.341 -58.070 -35.987  0.00  0.00    +0.000 HD
ENDBRANCH  10  16
ENDBRANCH   1   2
BRANCH   1  18
ATOM     18  O   UNL     1     -74.272 -55.474 -29.376  0.00  0.00    +0.000 OA
BRANCH  18  19
ATOM     19  C   UNL     1     -74.291 -55.489 -28.004  0.00  0.00    +0.000 C 
ATOM     20  C   UNL     1     -73.970 -56.599 -27.220  0.00  0.00    +0.000 C 
ATOM     21  C   UNL     1     -74.012 -56.514 -25.831  0.00  0.00    +0.000 C 
ATOM     22  C   UNL     1     -74.376 -55.316 -25.222  0.00  0.00    +0.000 C 
ATOM     23  C   UNL     1     -74.698 -54.204 -25.997  0.00  0.00    +0.000 C 
ATOM     24  C   UNL     1     -74.654 -54.291 -27.387  0.00  0.00    +0.000 C 
ATOM     25  C   UNL     1     -74.419 -55.226 -23.801  0.00  0.00    +0.000 C 
ATOM     26  C   UNL     1     -74.471 -55.132 -22.392  0.00  0.00    +0.000 C 
ATOM     27  S   UNL     1     -73.337 -55.852 -21.314  0.00  0.00    +0.000 S 
ATOM     28  C   UNL     1     -74.169 -55.218 -19.908  0.00  0.00    +0.000 C 
ATOM     29  O   UNL     1     -73.808 -55.398 -18.757  0.00  0.00    +0.000 OA
ATOM     30  N   UNL     1     -75.255 -54.504 -20.298  0.00  0.00    +0.000 N 
ATOM     31  C   UNL     1     -75.501 -54.392 -21.634  0.00  0.00    +0.000 C 
ATOM     32  H   UNL     1     -75.852 -54.060 -19.619  0.00  0.00    +0.000 HD
ATOM     33  O   UNL     1     -76.429 -53.770 -22.123  0.00  0.00    +0.000 OA
ENDBRANCH  18  19
ENDBRANCH   1  18
TORSDOF 4
ENDMDL
MODEL 7
REMARK VINA RESULT:      -6.2     48.354     56.758
REMARK  Name = Troglitazone.pdbqt.pdb
REMARK  4 active torsions:
REMARK  status: ('A' for Active; 'I' for Inactive)
REMARK    1  A    between atoms: C_1  and  O_2
REMARK    2  A    between atoms: C_1  and  C_18
REMARK    3  A    between atoms: O_2  and  C_3
REMARK    4  A    between atoms: C_26  and  O_32
REMARK                            x       y       z     vdW  Elec       q    Type
REMARK                         _______ _______ _______ _____ _____    ______ ____
ROOT
ATOM      1  C   UNL     1     -64.983 -61.990 -73.470  0.00  0.00    +0.000 C 
ENDROOT
BRANCH   1   2
ATOM      2  C   UNL     1     -65.807 -61.827 -74.680  0.00  0.00    +0.000 C 
ATOM      3  O   UNL     1     -64.987 -61.103 -75.668  0.00  0.00    +0.000 OA
ATOM      4  C   UNL     1     -65.516 -60.200 -76.599  0.00  0.00    +0.000 A 
ATOM      5  C   UNL     1     -66.775 -59.548 -76.449  0.00  0.00    +0.000 A 
ATOM      6  C   UNL     1     -64.709 -59.890 -77.713  0.00  0.00    +0.000 A 
ATOM      7  C   UNL     1     -67.494 -59.922 -75.284  0.00  0.00    +0.000 C 
ATOM      8  C   UNL     1     -67.240 -58.629 -77.398  0.00  0.00    +0.000 A 
ATOM      9  C   UNL     1     -67.004 -61.036 -74.422  0.00  0.00    +0.000 C 
ATOM     10  C   UNL     1     -66.436 -58.342 -78.512  0.00  0.00    +0.000 A 
ATOM     11  C   UNL     1     -68.581 -57.951 -77.215  0.00  0.00    +0.000 C 
ATOM     12  C   UNL     1     -65.180 -58.965 -78.671  0.00  0.00    +0.000 A 
ATOM     13  C   UNL     1     -64.386 -58.562 -79.914  0.00  0.00    +0.000 C 
ATOM     14  C   UNL     1     -63.343 -60.554 -77.838  0.00  0.00    +0.000 C 
ATOM     15  C   UNL     1     -66.167 -63.193 -75.313  0.00  0.00    +0.000 C 
BRANCH  10  16
ATOM     16  O   UNL     1     -66.872 -57.435 -79.464  0.00  0.00    +0.000 OA
ATOM     17  H   UNL     1     -67.341 -56.707 -79.002  0.00  0.00    +0.000 HD
ENDBRANCH  10  16
ENDBRANCH   1   2
BRANCH   1  18
ATOM     18  O   UNL     1     -64.241 -62.148 -72.373  0.00  0.00    +0.000 OA
BRANCH  18  19
ATOM     19  C   UNL     1     -64.861 -61.783 -71.204  0.00  0.00    +0.000 C 
ATOM     20  C   UNL     1     -65.508 -60.562 -71.000  0.00  0.00    +0.000 C 
ATOM     21  C   UNL     1     -66.116 -60.285 -69.778  0.00  0.00    +0.000 C 
ATOM     22  C   UNL     1     -66.078 -61.231 -68.756  0.00  0.00    +0.000 C 
ATOM     23  C   UNL     1     -65.434 -62.450 -68.953  0.00  0.00    +0.000 C 
ATOM     24  C   UNL     1     -64.828 -62.726 -70.177  0.00  0.00    +0.000 C 
ATOM     25  C   UNL     1     -66.700 -60.950 -67.507  0.00  0.00    +0.000 C 
ATOM     26  C   UNL     1     -67.309 -60.676 -66.261  0.00  0.00    +0.000 C 
ATOM     27  S   UNL     1     -68.813 -59.861 -66.058  0.00  0.00    +0.000 S 
ATOM     28  C   UNL     1     -68.730 -60.002 -64.313  0.00  0.00    +0.000 C 
ATOM     29  O   UNL     1     -69.584 -59.585 -63.549  0.00  0.00    +0.000 OA
ATOM     30  N   UNL     1     -67.588 -60.642 -63.956  0.00  0.00    +0.000 N 
ATOM     31  C   UNL     1     -66.750 -61.057 -64.948  0.00  0.00    +0.000 C 
ATOM     32  H   UNL     1     -67.376 -60.816 -62.987  0.00  0.00    +0.000 HD
ATOM     33  O   UNL     1     -65.701 -61.655 -64.771  0.00  0.00    +0.000 OA
ENDBRANCH  18  19
ENDBRANCH   1  18
TORSDOF 4
ENDMDL
MODEL 8
REMARK VINA RESULT:      -6.1     26.652     32.017
REMARK  Name = Troglitazone.pdbqt.pdb
REMARK  4 active torsions:
REMARK  status: ('A' for Active; 'I' for Inactive)
REMARK    1  A    between atoms: C_1  and  O_2
REMARK    2  A    between atoms: C_1  and  C_18
REMARK    3  A    between atoms: O_2  and  C_3
REMARK    4  A    between atoms: C_26  and  O_32
REMARK                            x       y       z     vdW  Elec       q    Type
REMARK                         _______ _______ _______ _____ _____    ______ ____
ROOT
ATOM      1  C   UNL     1     -63.880 -57.259 -48.807  0.00  0.00    +0.000 C 
ENDROOT
BRANCH   1   2
ATOM      2  C   UNL     1     -63.966 -57.899 -47.484  0.00  0.00    +0.000 C 
ATOM      3  O   UNL     1     -65.113 -57.294 -46.784  0.00  0.00    +0.000 OA
ATOM      4  C   UNL     1     -65.155 -57.095 -45.398  0.00  0.00    +0.000 A 
ATOM      5  C   UNL     1     -63.998 -57.035 -44.567  0.00  0.00    +0.000 A 
ATOM      6  C   UNL     1     -66.426 -56.884 -44.825  0.00  0.00    +0.000 A 
ATOM      7  C   UNL     1     -62.773 -57.244 -45.252  0.00  0.00    +0.000 C 
ATOM      8  C   UNL     1     -64.099 -56.800 -43.190  0.00  0.00    +0.000 A 
ATOM      9  C   UNL     1     -62.772 -57.660 -46.684  0.00  0.00    +0.000 C 
ATOM     10  C   UNL     1     -65.370 -56.611 -42.627  0.00  0.00    +0.000 A 
ATOM     11  C   UNL     1     -62.854 -56.742 -42.330  0.00  0.00    +0.000 C 
ATOM     12  C   UNL     1     -66.526 -56.650 -43.435  0.00  0.00    +0.000 A 
ATOM     13  C   UNL     1     -67.853 -56.413 -42.715  0.00  0.00    +0.000 C 
ATOM     14  C   UNL     1     -67.652 -56.899 -45.729  0.00  0.00    +0.000 C 
ATOM     15  C   UNL     1     -64.264 -59.415 -47.602  0.00  0.00    +0.000 C 
BRANCH  10  16
ATOM     16  O   UNL     1     -65.497 -56.375 -41.268  0.00  0.00    +0.000 OA
ATOM     17  H   UNL     1     -65.901 -57.169 -40.855  0.00  0.00    +0.000 HD
ENDBRANCH  10  16
ENDBRANCH   1   2
BRANCH   1  18
ATOM     18  O   UNL     1     -63.793 -56.685 -50.008  0.00  0.00    +0.000 OA
BRANCH  18  19
ATOM     19  C   UNL     1     -62.531 -56.677 -50.550  0.00  0.00    +0.000 C 
ATOM     20  C   UNL     1     -61.412 -56.109 -49.939  0.00  0.00    +0.000 C 
ATOM     21  C   UNL     1     -60.169 -56.158 -50.565  0.00  0.00    +0.000 C 
ATOM     22  C   UNL     1     -60.044 -56.776 -51.806  0.00  0.00    +0.000 C 
ATOM     23  C   UNL     1     -61.157 -57.345 -52.422  0.00  0.00    +0.000 C 
ATOM     24  C   UNL     1     -62.399 -57.296 -51.793  0.00  0.00    +0.000 C 
ATOM     25  C   UNL     1     -58.773 -56.829 -52.448  0.00  0.00    +0.000 C 
ATOM     26  C   UNL     1     -57.518 -56.877 -53.094  0.00  0.00    +0.000 C 
ATOM     27  S   UNL     1     -56.013 -57.157 -52.304  0.00  0.00    +0.000 S 
ATOM     28  C   UNL     1     -55.125 -57.055 -53.811  0.00  0.00    +0.000 C 
ATOM     29  O   UNL     1     -53.917 -57.189 -53.907  0.00  0.00    +0.000 OA
ATOM     30  N   UNL     1     -55.982 -56.812 -54.835  0.00  0.00    +0.000 N 
ATOM     31  C   UNL     1     -57.311 -56.706 -54.547  0.00  0.00    +0.000 C 
ATOM     32  H   UNL     1     -55.645 -56.726 -55.781  0.00  0.00    +0.000 HD
ATOM     33  O   UNL     1     -58.189 -56.505 -55.369  0.00  0.00    +0.000 OA
ENDBRANCH  18  19
ENDBRANCH   1  18
TORSDOF 4
ENDMDL
MODEL 9
REMARK VINA RESULT:      -6.1     13.008     18.746
REMARK  Name = Troglitazone.pdbqt.pdb
REMARK  4 active torsions:
REMARK  status: ('A' for Active; 'I' for Inactive)
REMARK    1  A    between atoms: C_1  and  O_2
REMARK    2  A    between atoms: C_1  and  C_18
REMARK    3  A    between atoms: O_2  and  C_3
REMARK    4  A    between atoms: C_26  and  O_32
REMARK                            x       y       z     vdW  Elec       q    Type
REMARK                         _______ _______ _______ _____ _____    ______ ____
ROOT
ATOM      1  C   UNL     1     -71.779 -56.211 -30.466  0.00  0.00    +0.000 C 
ENDROOT
BRANCH   1   2
ATOM      2  C   UNL     1     -70.581 -55.964 -31.287  0.00  0.00    +0.000 C 
ATOM      3  O   UNL     1     -71.014 -55.962 -32.695  0.00  0.00    +0.000 OA
ATOM      4  C   UNL     1     -70.215 -56.422 -33.750  0.00  0.00    +0.000 A 
ATOM      5  C   UNL     1     -69.116 -57.315 -33.587  0.00  0.00    +0.000 A 
ATOM      6  C   UNL     1     -70.577 -56.007 -35.049  0.00  0.00    +0.000 A 
ATOM      7  C   UNL     1     -68.853 -57.679 -32.240  0.00  0.00    +0.000 C 
ATOM      8  C   UNL     1     -68.372 -57.767 -34.683  0.00  0.00    +0.000 A 
ATOM      9  C   UNL     1     -69.584 -57.014 -31.123  0.00  0.00    +0.000 C 
ATOM     10  C   UNL     1     -68.729 -57.333 -35.969  0.00  0.00    +0.000 A 
ATOM     11  C   UNL     1     -67.209 -58.716 -34.481  0.00  0.00    +0.000 C 
ATOM     12  C   UNL     1     -69.823 -56.462 -36.154  0.00  0.00    +0.000 A 
ATOM     13  C   UNL     1     -70.130 -56.071 -37.599  0.00  0.00    +0.000 C 
ATOM     14  C   UNL     1     -71.784 -55.093 -35.219  0.00  0.00    +0.000 C 
ATOM     15  C   UNL     1     -69.973 -54.569 -31.004  0.00  0.00    +0.000 C 
BRANCH  10  16
ATOM     16  O   UNL     1     -68.010 -57.767 -37.071  0.00  0.00    +0.000 OA
ATOM     17  H   UNL     1     -67.082 -57.465 -36.969  0.00  0.00    +0.000 HD
ENDBRANCH  10  16
ENDBRANCH   1   2
BRANCH   1  18
ATOM     18  O   UNL     1     -72.867 -56.442 -29.730  0.00  0.00    +0.000 OA
BRANCH  18  19
ATOM     19  C   UNL     1     -72.694 -57.361 -28.725  0.00  0.00    +0.000 C 
ATOM     20  C   UNL     1     -71.766 -57.233 -27.688  0.00  0.00    +0.000 C 
ATOM     21  C   UNL     1     -71.669 -58.217 -26.708  0.00  0.00    +0.000 C 
ATOM     22  C   UNL     1     -72.500 -59.333 -26.762  0.00  0.00    +0.000 C 
ATOM     23  C   UNL     1     -73.427 -59.467 -27.794  0.00  0.00    +0.000 C 
ATOM     24  C   UNL     1     -73.524 -58.480 -28.773  0.00  0.00    +0.000 C 
ATOM     25  C   UNL     1     -72.403 -60.340 -25.760  0.00  0.00    +0.000 C 
ATOM     26  C   UNL     1     -72.307 -61.347 -24.774  0.00  0.00    +0.000 C 
ATOM     27  S   UNL     1     -72.058 -61.060 -23.094  0.00  0.00    +0.000 S 
ATOM     28  C   UNL     1     -72.091 -62.773 -22.727  0.00  0.00    +0.000 C 
ATOM     29  O   UNL     1     -71.966 -63.238 -21.607  0.00  0.00    +0.000 OA
ATOM     30  N   UNL     1     -72.280 -63.485 -23.867  0.00  0.00    +0.000 N 
ATOM     31  C   UNL     1     -72.417 -62.797 -25.036  0.00  0.00    +0.000 C 
ATOM     32  H   UNL     1     -72.330 -64.491 -23.845  0.00  0.00    +0.000 HD
ATOM     33  O   UNL     1     -72.606 -63.307 -26.128  0.00  0.00    +0.000 OA
ENDBRANCH  18  19
ENDBRANCH   1  18
TORSDOF 4
ENDMDL
