MODEL 1
REMARK VINA RESULT:      -5.6      0.000      0.000
REMARK  Name = 
REMARK  19 active torsions:
REMARK  status: ('A' for Active; 'I' for Inactive)
REMARK    1  A    between atoms: O_1  and  C_20
REMARK    2  A    between atoms: O_1  and  C_36
REMARK    3  A    between atoms: O_2  and  C_18
REMARK    4  A    between atoms: O_3  and  C_28
REMARK    5  A    between atoms: O_3  and  C_42
REMARK    6  A    between atoms: O_5  and  C_34
REMARK    7  A    between atoms: O_5  and  C_50
REMARK    8  A    between atoms: O_7  and  C_40
REMARK    9  A    between atoms: O_7  and  C_56
REMARK   10  A    between atoms: O_9  and  C_46
REMARK   11  A    between atoms: N_11  and  C_30
REMARK   12  A    between atoms: C_17  and  C_23
REMARK   13  A    between atoms: C_18  and  C_28
REMARK   14  A    between atoms: C_23  and  C_32
REMARK   15  A    between atoms: C_33  and  C_35
REMARK   16  A    between atoms: C_35  and  C_40
REMARK   17  A    between atoms: C_36  and  C_41
REMARK   18  A    between atoms: C_46  and  C_53
REMARK   19  A    between atoms: C_53  and  C_57
REMARK                            x       y       z     vdW  Elec       q    Type
REMARK                         _______ _______ _______ _____ _____    ______ ____
ROOT
ATOM      1  N   UNL     1     -65.178 -52.746 -14.470  0.00  0.00    +0.000 NA
ATOM      2  N   UNL     1     -62.274 -55.250 -17.312  0.00  0.00    +0.000 N 
ATOM      3  C   UNL     1     -63.743 -53.936 -15.871  0.00  0.00    +0.000 C 
ATOM      4  C   UNL     1     -63.876 -52.585 -15.146  0.00  0.00    +0.000 C 
ATOM      5  C   UNL     1     -62.673 -53.851 -16.978  0.00  0.00    +0.000 C 
ATOM      6  C   UNL     1     -63.702 -51.320 -16.107  0.00  0.00    +0.000 C 
ATOM      7  C   UNL     1     -62.974 -52.876 -18.129  0.00  0.00    +0.000 C 
ATOM      8  C   UNL     1     -65.186 -54.347 -16.219  0.00  0.00    +0.000 C 
ATOM      9  C   UNL     1     -63.859 -51.678 -17.650  0.00  0.00    +0.000 C 
ATOM     10  C   UNL     1     -63.128 -55.104 -15.124  0.00  0.00    +0.000 A 
ATOM     11  C   UNL     1     -66.081 -53.436 -15.382  0.00  0.00    +0.000 C 
ATOM     12  C   UNL     1     -62.347 -55.850 -16.017  0.00  0.00    +0.000 A 
ATOM     13  C   UNL     1     -64.717 -50.222 -15.780  0.00  0.00    +0.000 C 
ATOM     14  C   UNL     1     -65.726 -51.524 -13.902  0.00  0.00    +0.000 C 
ATOM     15  C   UNL     1     -65.607 -50.322 -14.783  0.00  0.00    +0.000 C 
ATOM     16  C   UNL     1     -63.301 -55.488 -13.798  0.00  0.00    +0.000 A 
ATOM     17  C   UNL     1     -60.998 -55.442 -18.000  0.00  0.00    +0.000 C 
ATOM     18  C   UNL     1     -61.757 -57.024 -15.591  0.00  0.00    +0.000 A 
ATOM     19  C   UNL     1     -62.708 -56.677 -13.331  0.00  0.00    +0.000 A 
ATOM     20  C   UNL     1     -61.943 -57.440 -14.262  0.00  0.00    +0.000 A 
ENDROOT
BRANCH  19  23
ATOM     21  N   UNL     1     -63.830 -58.014  -7.716  0.00  0.00    +0.000 NA
ATOM     22  N   UNL     1     -64.343 -58.983 -12.872  0.00  0.00    +0.000 N 
ATOM     23  C   UNL     1     -62.893 -57.175 -11.842  0.00  0.00    +0.000 C 
ATOM     24  C   UNL     1     -63.854 -56.201 -11.019  0.00  0.00    +0.000 C 
ATOM     25  C   UNL     1     -63.545 -58.599 -11.807  0.00  0.00    +0.000 A 
ATOM     26  C   UNL     1     -64.403 -56.730  -9.683  0.00  0.00    +0.000 C 
ATOM     27  C   UNL     1     -65.438 -55.830  -9.011  0.00  0.00    +0.000 C 
ATOM     28  C   UNL     1     -63.334 -57.006  -8.636  0.00  0.00    +0.000 C 
ATOM     29  C   UNL     1     -63.619 -59.644 -10.869  0.00  0.00    +0.000 A 
ATOM     30  C   UNL     1     -65.969 -56.454  -7.686  0.00  0.00    +0.000 C 
ATOM     31  C   UNL     1     -65.038 -57.541  -7.007  0.00  0.00    +0.000 C 
ATOM     32  C   UNL     1     -63.036 -59.782  -9.472  0.00  0.00    +0.000 C 
ATOM     33  C   UNL     1     -64.009 -59.355  -8.331  0.00  0.00    +0.000 C 
ATOM     34  C   UNL     1     -64.448 -60.674 -11.451  0.00  0.00    +0.000 A 
ATOM     35  C   UNL     1     -64.876 -60.229 -12.693  0.00  0.00    +0.000 A 
ATOM     36  C   UNL     1     -64.885 -61.945 -11.016  0.00  0.00    +0.000 A 
ATOM     37  C   UNL     1     -65.708 -60.980 -13.533  0.00  0.00    +0.000 A 
ATOM     38  C   UNL     1     -65.716 -62.714 -11.839  0.00  0.00    +0.000 A 
ATOM     39  C   UNL     1     -66.120 -62.236 -13.081  0.00  0.00    +0.000 A 
ATOM     40  H   UNL     1     -64.501 -58.424 -13.701  0.00  0.00    +0.000 HD
BRANCH  23  42
ATOM     41  O   UNL     1     -60.768 -58.137 -10.927  0.00  0.00    +0.000 OA
ATOM     42  C   UNL     1     -61.453 -57.167 -11.229  0.00  0.00    +0.000 C 
BRANCH  42  43
ATOM     43  O   UNL     1     -61.011 -55.873 -11.089  0.00  0.00    +0.000 OA
ATOM     44  C   UNL     1     -60.087 -55.689 -10.017  0.00  0.00    +0.000 C 
ENDBRANCH  42  43
ENDBRANCH  23  42
BRANCH  30  45
ATOM     45  O   UNL     1     -66.081 -55.345  -6.759  0.00  0.00    +0.000 OA
ATOM     46  H   UNL     1     -66.281 -54.549  -7.282  0.00  0.00    +0.000 HD
ENDBRANCH  30  45
BRANCH  30  47
ATOM     47  C   UNL     1     -67.424 -56.957  -7.839  0.00  0.00    +0.000 C 
ATOM     48  C   UNL     1     -67.616 -58.259  -8.597  0.00  0.00    +0.000 C 
ENDBRANCH  30  47
ENDBRANCH  19  23
BRANCH   7  49
ATOM     49  O   UNL     1     -61.681 -52.299 -18.500  0.00  0.00    +0.000 OA
ATOM     50  H   UNL     1     -61.306 -52.895 -19.181  0.00  0.00    +0.000 HD
ENDBRANCH   7  49
BRANCH   7  52
ATOM     51  O   UNL     1     -64.494 -54.386 -19.384  0.00  0.00    +0.000 OA
ATOM     52  C   UNL     1     -63.565 -53.591 -19.370  0.00  0.00    +0.000 C 
BRANCH  52  53
ATOM     53  O   UNL     1     -62.936 -53.138 -20.505  0.00  0.00    +0.000 OA
ATOM     54  C   UNL     1     -62.278 -54.163 -21.251  0.00  0.00    +0.000 C 
ENDBRANCH  52  53
ENDBRANCH   7  52
BRANCH  20  55
ATOM     55  O   UNL     1     -61.335 -58.576 -13.793  0.00  0.00    +0.000 OA
ATOM     56  C   UNL     1     -61.324 -59.677 -14.697  0.00  0.00    +0.000 C 
ENDBRANCH  20  55
BRANCH   6  57
ATOM     57  C   UNL     1     -62.282 -50.680 -15.886  0.00  0.00    +0.000 C 
ATOM     58  C   UNL     1     -61.509 -51.143 -14.649  0.00  0.00    +0.000 C 
ENDBRANCH   6  57
BRANCH   9  59
ATOM     59  O   UNL     1     -65.264 -51.896 -17.923  0.00  0.00    +0.000 OA
BRANCH  59  61
ATOM     60  O   UNL     1     -65.215 -50.450 -19.699  0.00  0.00    +0.000 OA
ATOM     61  C   UNL     1     -65.832 -51.141 -18.901  0.00  0.00    +0.000 C 
ATOM     62  C   UNL     1     -67.320 -51.307 -18.883  0.00  0.00    +0.000 C 
ENDBRANCH  59  61
ENDBRANCH   9  59
TORSDOF 12
ENDMDL
MODEL 2
REMARK VINA RESULT:      -5.6     69.120     75.415
REMARK  Name = 
REMARK  19 active torsions:
REMARK  status: ('A' for Active; 'I' for Inactive)
REMARK    1  A    between atoms: O_1  and  C_20
REMARK    2  A    between atoms: O_1  and  C_36
REMARK    3  A    between atoms: O_2  and  C_18
REMARK    4  A    between atoms: O_3  and  C_28
REMARK    5  A    between atoms: O_3  and  C_42
REMARK    6  A    between atoms: O_5  and  C_34
REMARK    7  A    between atoms: O_5  and  C_50
REMARK    8  A    between atoms: O_7  and  C_40
REMARK    9  A    between atoms: O_7  and  C_56
REMARK   10  A    between atoms: O_9  and  C_46
REMARK   11  A    between atoms: N_11  and  C_30
REMARK   12  A    between atoms: C_17  and  C_23
REMARK   13  A    between atoms: C_18  and  C_28
REMARK   14  A    between atoms: C_23  and  C_32
REMARK   15  A    between atoms: C_33  and  C_35
REMARK   16  A    between atoms: C_35  and  C_40
REMARK   17  A    between atoms: C_36  and  C_41
REMARK   18  A    between atoms: C_46  and  C_53
REMARK   19  A    between atoms: C_53  and  C_57
REMARK                            x       y       z     vdW  Elec       q    Type
REMARK                         _______ _______ _______ _____ _____    ______ ____
ROOT
ATOM      1  N   UNL     1     -45.151 -59.537 -89.082  0.00  0.00    +0.000 NA
ATOM      2  N   UNL     1     -42.364 -63.406 -88.869  0.00  0.00    +0.000 N 
ATOM      3  C   UNL     1     -43.763 -61.409 -89.001  0.00  0.00    +0.000 C 
ATOM      4  C   UNL     1     -43.731 -59.893 -89.263  0.00  0.00    +0.000 C 
ATOM      5  C   UNL     1     -42.483 -62.077 -89.541  0.00  0.00    +0.000 C 
ATOM      6  C   UNL     1     -43.049 -59.496 -90.653  0.00  0.00    +0.000 C 
ATOM      7  C   UNL     1     -42.277 -62.001 -91.062  0.00  0.00    +0.000 C 
ATOM      8  C   UNL     1     -45.147 -61.872 -89.497  0.00  0.00    +0.000 C 
ATOM      9  C   UNL     1     -42.935 -60.718 -91.668  0.00  0.00    +0.000 C 
ATOM     10  C   UNL     1     -43.629 -61.902 -87.573  0.00  0.00    +0.000 A 
ATOM     11  C   UNL     1     -45.964 -60.594 -89.672  0.00  0.00    +0.000 C 
ATOM     12  C   UNL     1     -42.867 -63.079 -87.572  0.00  0.00    +0.000 A 
ATOM     13  C   UNL     1     -43.820 -58.378 -91.359  0.00  0.00    +0.000 C 
ATOM     14  C   UNL     1     -45.506 -58.198 -89.525  0.00  0.00    +0.000 C 
ATOM     15  C   UNL     1     -44.910 -57.798 -90.836  0.00  0.00    +0.000 C 
ATOM     16  C   UNL     1     -44.182 -61.381 -86.408  0.00  0.00    +0.000 A 
ATOM     17  C   UNL     1     -41.049 -64.045 -88.867  0.00  0.00    +0.000 C 
ATOM     18  C   UNL     1     -42.686 -63.773 -86.391  0.00  0.00    +0.000 A 
ATOM     19  C   UNL     1     -44.011 -62.062 -85.187  0.00  0.00    +0.000 A 
ATOM     20  C   UNL     1     -43.259 -63.274 -85.210  0.00  0.00    +0.000 A 
ENDROOT
BRANCH  19  23
ATOM     21  N   UNL     1     -46.752 -59.699 -80.553  0.00  0.00    +0.000 NA
ATOM     22  N   UNL     1     -45.851 -63.757 -83.795  0.00  0.00    +0.000 N 
ATOM     23  C   UNL     1     -44.639 -61.530 -83.837  0.00  0.00    +0.000 C 
ATOM     24  C   UNL     1     -45.729 -60.395 -84.111  0.00  0.00    +0.000 C 
ATOM     25  C   UNL     1     -45.364 -62.685 -83.066  0.00  0.00    +0.000 A 
ATOM     26  C   UNL     1     -46.664 -60.033 -82.946  0.00  0.00    +0.000 C 
ATOM     27  C   UNL     1     -47.787 -59.060 -83.301  0.00  0.00    +0.000 C 
ATOM     28  C   UNL     1     -45.954 -59.441 -81.738  0.00  0.00    +0.000 C 
ATOM     29  C   UNL     1     -45.766 -62.904 -81.736  0.00  0.00    +0.000 A 
ATOM     30  C   UNL     1     -48.709 -58.775 -82.078  0.00  0.00    +0.000 C 
ATOM     31  C   UNL     1     -48.079 -59.053 -80.652  0.00  0.00    +0.000 C 
ATOM     32  C   UNL     1     -45.610 -62.051 -80.487  0.00  0.00    +0.000 C 
ATOM     33  C   UNL     1     -46.836 -61.137 -80.185  0.00  0.00    +0.000 C 
ATOM     34  C   UNL     1     -46.461 -64.170 -81.710  0.00  0.00    +0.000 A 
ATOM     35  C   UNL     1     -46.492 -64.669 -83.003  0.00  0.00    +0.000 A 
ATOM     36  C   UNL     1     -47.083 -64.927 -80.692  0.00  0.00    +0.000 A 
ATOM     37  C   UNL     1     -47.100 -65.884 -83.343  0.00  0.00    +0.000 A 
ATOM     38  C   UNL     1     -47.695 -66.146 -81.008  0.00  0.00    +0.000 A 
ATOM     39  C   UNL     1     -47.702 -66.616 -82.317  0.00  0.00    +0.000 A 
ATOM     40  H   UNL     1     -45.734 -63.873 -84.793  0.00  0.00    +0.000 HD
BRANCH  23  42
ATOM     41  O   UNL     1     -42.824 -61.478 -82.111  0.00  0.00    +0.000 OA
ATOM     42  C   UNL     1     -43.433 -60.944 -83.030  0.00  0.00    +0.000 C 
BRANCH  42  43
ATOM     43  O   UNL     1     -43.100 -59.703 -83.521  0.00  0.00    +0.000 OA
ATOM     44  C   UNL     1     -41.705 -59.536 -83.773  0.00  0.00    +0.000 C 
ENDBRANCH  42  43
ENDBRANCH  23  42
BRANCH  30  45
ATOM     45  O   UNL     1     -49.007 -57.358 -82.146  0.00  0.00    +0.000 OA
ATOM     46  H   UNL     1     -49.519 -57.208 -82.960  0.00  0.00    +0.000 HD
ENDBRANCH  30  45
BRANCH  30  47
ATOM     47  C   UNL     1     -50.091 -59.452 -82.238  0.00  0.00    +0.000 C 
ATOM     48  C   UNL     1     -50.353 -60.674 -81.375  0.00  0.00    +0.000 C 
ENDBRANCH  30  47
ENDBRANCH  19  23
BRANCH   7  49
ATOM     49  O   UNL     1     -40.833 -61.842 -91.253  0.00  0.00    +0.000 OA
ATOM     50  H   UNL     1     -40.493 -62.730 -91.488  0.00  0.00    +0.000 HD
ENDBRANCH   7  49
BRANCH   7  52
ATOM     51  O   UNL     1     -43.706 -63.978 -91.525  0.00  0.00    +0.000 OA
ATOM     52  C   UNL     1     -42.725 -63.296 -91.786  0.00  0.00    +0.000 C 
BRANCH  52  53
ATOM     53  O   UNL     1     -41.890 -63.543 -92.848  0.00  0.00    +0.000 OA
ATOM     54  C   UNL     1     -42.500 -64.285 -93.906  0.00  0.00    +0.000 C 
ENDBRANCH  52  53
ENDBRANCH   7  52
BRANCH  20  55
ATOM     55  O   UNL     1     -43.061 -63.913 -84.012  0.00  0.00    +0.000 OA
ATOM     56  C   UNL     1     -42.714 -65.291 -84.109  0.00  0.00    +0.000 C 
ENDBRANCH  20  55
BRANCH   6  57
ATOM     57  C   UNL     1     -41.605 -58.930 -90.391  0.00  0.00    +0.000 C 
ATOM     58  C   UNL     1     -41.276 -58.540 -88.948  0.00  0.00    +0.000 C 
ENDBRANCH   6  57
BRANCH   9  59
ATOM     59  O   UNL     1     -44.253 -60.984 -92.205  0.00  0.00    +0.000 OA
BRANCH  59  61
ATOM     60  O   UNL     1     -45.562 -59.855 -93.709  0.00  0.00    +0.000 OA
ATOM     61  C   UNL     1     -44.541 -60.469 -93.430  0.00  0.00    +0.000 C 
ATOM     62  C   UNL     1     -43.413 -60.731 -94.378  0.00  0.00    +0.000 C 
ENDBRANCH  59  61
ENDBRANCH   9  59
TORSDOF 12
ENDMDL
MODEL 3
REMARK VINA RESULT:      -5.4     63.923     67.147
REMARK  Name = 
REMARK  19 active torsions:
REMARK  status: ('A' for Active; 'I' for Inactive)
REMARK    1  A    between atoms: O_1  and  C_20
REMARK    2  A    between atoms: O_1  and  C_36
REMARK    3  A    between atoms: O_2  and  C_18
REMARK    4  A    between atoms: O_3  and  C_28
REMARK    5  A    between atoms: O_3  and  C_42
REMARK    6  A    between atoms: O_5  and  C_34
REMARK    7  A    between atoms: O_5  and  C_50
REMARK    8  A    between atoms: O_7  and  C_40
REMARK    9  A    between atoms: O_7  and  C_56
REMARK   10  A    between atoms: O_9  and  C_46
REMARK   11  A    between atoms: N_11  and  C_30
REMARK   12  A    between atoms: C_17  and  C_23
REMARK   13  A    between atoms: C_18  and  C_28
REMARK   14  A    between atoms: C_23  and  C_32
REMARK   15  A    between atoms: C_33  and  C_35
REMARK   16  A    between atoms: C_35  and  C_40
REMARK   17  A    between atoms: C_36  and  C_41
REMARK   18  A    between atoms: C_46  and  C_53
REMARK   19  A    between atoms: C_53  and  C_57
REMARK                            x       y       z     vdW  Elec       q    Type
REMARK                         _______ _______ _______ _____ _____    ______ ____
ROOT
ATOM      1  N   UNL     1     -62.173 -51.037 -80.888  0.00  0.00    +0.000 NA
ATOM      2  N   UNL     1     -57.577 -52.250 -80.453  0.00  0.00    +0.000 N 
ATOM      3  C   UNL     1     -59.925 -51.608 -80.643  0.00  0.00    +0.000 C 
ATOM      4  C   UNL     1     -61.134 -51.094 -79.842  0.00  0.00    +0.000 C 
ATOM      5  C   UNL     1     -58.617 -51.351 -79.870  0.00  0.00    +0.000 C 
ATOM      6  C   UNL     1     -60.842 -49.750 -79.027  0.00  0.00    +0.000 C 
ATOM      7  C   UNL     1     -58.260 -49.875 -79.626  0.00  0.00    +0.000 C 
ATOM      8  C   UNL     1     -60.112 -51.033 -82.061  0.00  0.00    +0.000 C 
ATOM      9  C   UNL     1     -59.541 -48.982 -79.531  0.00  0.00    +0.000 C 
ATOM     10  C   UNL     1     -59.742 -53.104 -80.804  0.00  0.00    +0.000 A 
ATOM     11  C   UNL     1     -61.557 -50.543 -82.114  0.00  0.00    +0.000 C 
ATOM     12  C   UNL     1     -58.373 -53.400 -80.745  0.00  0.00    +0.000 A 
ATOM     13  C   UNL     1     -62.018 -48.774 -79.112  0.00  0.00    +0.000 C 
ATOM     14  C   UNL     1     -63.386 -50.331 -80.506  0.00  0.00    +0.000 C 
ATOM     15  C   UNL     1     -63.154 -49.053 -79.766  0.00  0.00    +0.000 C 
ATOM     16  C   UNL     1     -60.699 -54.086 -81.037  0.00  0.00    +0.000 A 
ATOM     17  C   UNL     1     -56.390 -52.522 -79.645  0.00  0.00    +0.000 C 
ATOM     18  C   UNL     1     -57.946 -54.696 -80.962  0.00  0.00    +0.000 A 
ATOM     19  C   UNL     1     -60.296 -55.418 -81.257  0.00  0.00    +0.000 A 
ATOM     20  C   UNL     1     -58.898 -55.695 -81.225  0.00  0.00    +0.000 A 
ENDROOT
BRANCH  19  23
ATOM     21  N   UNL     1     -63.852 -60.060 -81.879  0.00  0.00    +0.000 NA
ATOM     22  N   UNL     1     -62.941 -55.149 -80.193  0.00  0.00    +0.000 N 
ATOM     23  C   UNL     1     -61.339 -56.570 -81.553  0.00  0.00    +0.000 C 
ATOM     24  C   UNL     1     -61.016 -57.879 -80.697  0.00  0.00    +0.000 C 
ATOM     25  C   UNL     1     -62.790 -56.119 -81.170  0.00  0.00    +0.000 A 
ATOM     26  C   UNL     1     -62.122 -58.944 -80.611  0.00  0.00    +0.000 C 
ATOM     27  C   UNL     1     -61.827 -60.101 -79.658  0.00  0.00    +0.000 C 
ATOM     28  C   UNL     1     -62.485 -59.574 -81.948  0.00  0.00    +0.000 C 
ATOM     29  C   UNL     1     -64.090 -56.531 -81.514  0.00  0.00    +0.000 A 
ATOM     30  C   UNL     1     -63.011 -61.113 -79.601  0.00  0.00    +0.000 C 
ATOM     31  C   UNL     1     -63.997 -61.102 -80.839  0.00  0.00    +0.000 C 
ATOM     32  C   UNL     1     -64.582 -57.616 -82.458  0.00  0.00    +0.000 C 
ATOM     33  C   UNL     1     -64.868 -58.982 -81.763  0.00  0.00    +0.000 C 
ATOM     34  C   UNL     1     -65.005 -55.726 -80.738  0.00  0.00    +0.000 A 
ATOM     35  C   UNL     1     -64.256 -54.881 -79.933  0.00  0.00    +0.000 A 
ATOM     36  C   UNL     1     -66.413 -55.659 -80.641  0.00  0.00    +0.000 A 
ATOM     37  C   UNL     1     -64.827 -53.964 -79.042  0.00  0.00    +0.000 A 
ATOM     38  C   UNL     1     -67.006 -54.749 -79.758  0.00  0.00    +0.000 A 
ATOM     39  C   UNL     1     -66.221 -53.913 -78.970  0.00  0.00    +0.000 A 
ATOM     40  H   UNL     1     -62.175 -54.672 -79.735  0.00  0.00    +0.000 HD
BRANCH  23  42
ATOM     41  O   UNL     1     -60.698 -57.857 -83.603  0.00  0.00    +0.000 OA
ATOM     42  C   UNL     1     -61.194 -56.867 -83.082  0.00  0.00    +0.000 C 
BRANCH  42  43
ATOM     43  O   UNL     1     -61.748 -55.842 -83.812  0.00  0.00    +0.000 OA
ATOM     44  C   UNL     1     -60.951 -55.423 -84.919  0.00  0.00    +0.000 C 
ENDBRANCH  42  43
ENDBRANCH  23  42
BRANCH  30  45
ATOM     45  O   UNL     1     -62.390 -62.423 -79.560  0.00  0.00    +0.000 OA
ATOM     46  H   UNL     1     -62.864 -62.947 -78.890  0.00  0.00    +0.000 HD
ENDBRANCH  30  45
BRANCH  30  47
ATOM     47  C   UNL     1     -63.771 -61.022 -78.258  0.00  0.00    +0.000 C 
ATOM     48  C   UNL     1     -63.186 -60.093 -77.208  0.00  0.00    +0.000 C 
ENDBRANCH  30  47
ENDBRANCH  19  23
BRANCH   7  49
ATOM     49  O   UNL     1     -57.643 -49.838 -78.298  0.00  0.00    +0.000 OA
ATOM     50  H   UNL     1     -56.967 -49.130 -78.335  0.00  0.00    +0.000 HD
ENDBRANCH   7  49
BRANCH   7  52
ATOM     51  O   UNL     1     -57.251 -49.513 -81.866  0.00  0.00    +0.000 OA
ATOM     52  C   UNL     1     -57.236 -49.335 -80.656  0.00  0.00    +0.000 C 
BRANCH  52  53
ATOM     53  O   UNL     1     -56.318 -48.536 -80.018  0.00  0.00    +0.000 OA
ATOM     54  C   UNL     1     -55.833 -47.457 -80.819  0.00  0.00    +0.000 C 
ENDBRANCH  52  53
ENDBRANCH   7  52
BRANCH  20  55
ATOM     55  O   UNL     1     -58.512 -57.000 -81.399  0.00  0.00    +0.000 OA
ATOM     56  C   UNL     1     -57.548 -57.216 -82.425  0.00  0.00    +0.000 C 
ENDBRANCH  20  55
BRANCH   6  57
ATOM     57  C   UNL     1     -60.663 -50.086 -77.501  0.00  0.00    +0.000 C 
ATOM     58  C   UNL     1     -61.679 -51.053 -76.891  0.00  0.00    +0.000 C 
ENDBRANCH   6  57
BRANCH   9  59
ATOM     59  O   UNL     1     -59.853 -48.343 -80.791  0.00  0.00    +0.000 OA
BRANCH  59  61
ATOM     60  O   UNL     1     -59.105 -46.291 -80.098  0.00  0.00    +0.000 OA
ATOM     61  C   UNL     1     -59.798 -46.984 -80.830  0.00  0.00    +0.000 C 
ATOM     62  C   UNL     1     -60.681 -46.463 -81.921  0.00  0.00    +0.000 C 
ENDBRANCH  59  61
ENDBRANCH   9  59
TORSDOF 12
ENDMDL
MODEL 4
REMARK VINA RESULT:      -5.1     45.660     52.140
REMARK  Name = 
REMARK  19 active torsions:
REMARK  status: ('A' for Active; 'I' for Inactive)
REMARK    1  A    between atoms: O_1  and  C_20
REMARK    2  A    between atoms: O_1  and  C_36
REMARK    3  A    between atoms: O_2  and  C_18
REMARK    4  A    between atoms: O_3  and  C_28
REMARK    5  A    between atoms: O_3  and  C_42
REMARK    6  A    between atoms: O_5  and  C_34
REMARK    7  A    between atoms: O_5  and  C_50
REMARK    8  A    between atoms: O_7  and  C_40
REMARK    9  A    between atoms: O_7  and  C_56
REMARK   10  A    between atoms: O_9  and  C_46
REMARK   11  A    between atoms: N_11  and  C_30
REMARK   12  A    between atoms: C_17  and  C_23
REMARK   13  A    between atoms: C_18  and  C_28
REMARK   14  A    between atoms: C_23  and  C_32
REMARK   15  A    between atoms: C_33  and  C_35
REMARK   16  A    between atoms: C_35  and  C_40
REMARK   17  A    between atoms: C_36  and  C_41
REMARK   18  A    between atoms: C_46  and  C_53
REMARK   19  A    between atoms: C_53  and  C_57
REMARK                            x       y       z     vdW  Elec       q    Type
REMARK                         _______ _______ _______ _____ _____    ______ ____
ROOT
ATOM      1  N   UNL     1     -53.693 -60.013 -67.033  0.00  0.00    +0.000 NA
ATOM      2  N   UNL     1     -51.331 -55.973 -66.094  0.00  0.00    +0.000 N 
ATOM      3  C   UNL     1     -52.546 -58.027 -66.610  0.00  0.00    +0.000 C 
ATOM      4  C   UNL     1     -53.603 -58.634 -67.549  0.00  0.00    +0.000 C 
ATOM      5  C   UNL     1     -51.973 -56.728 -67.211  0.00  0.00    +0.000 C 
ATOM      6  C   UNL     1     -53.264 -58.455 -69.101  0.00  0.00    +0.000 C 
ATOM      7  C   UNL     1     -51.205 -56.881 -68.534  0.00  0.00    +0.000 C 
ATOM      8  C   UNL     1     -51.606 -59.196 -66.257  0.00  0.00    +0.000 C 
ATOM      9  C   UNL     1     -51.737 -58.090 -69.371  0.00  0.00    +0.000 C 
ATOM     10  C   UNL     1     -53.001 -57.426 -65.295  0.00  0.00    +0.000 A 
ATOM     11  C   UNL     1     -52.348 -60.459 -66.690  0.00  0.00    +0.000 C 
ATOM     12  C   UNL     1     -52.228 -56.288 -65.027  0.00  0.00    +0.000 A 
ATOM     13  C   UNL     1     -53.584 -59.723 -69.896  0.00  0.00    +0.000 C 
ATOM     14  C   UNL     1     -54.427 -60.937 -67.883  0.00  0.00    +0.000 C 
ATOM     15  C   UNL     1     -54.116 -60.820 -69.340  0.00  0.00    +0.000 C 
ATOM     16  C   UNL     1     -53.966 -57.887 -64.406  0.00  0.00    +0.000 A 
ATOM     17  C   UNL     1     -51.099 -54.543 -66.291  0.00  0.00    +0.000 C 
ATOM     18  C   UNL     1     -52.393 -55.618 -63.830  0.00  0.00    +0.000 A 
ATOM     19  C   UNL     1     -54.163 -57.223 -63.179  0.00  0.00    +0.000 A 
ATOM     20  C   UNL     1     -53.345 -56.085 -62.910  0.00  0.00    +0.000 A 
ENDROOT
BRANCH  19  23
ATOM     21  N   UNL     1     -58.323 -58.420 -59.201  0.00  0.00    +0.000 NA
ATOM     22  N   UNL     1     -56.497 -58.571 -64.144  0.00  0.00    +0.000 N 
ATOM     23  C   UNL     1     -55.227 -57.718 -62.120  0.00  0.00    +0.000 C 
ATOM     24  C   UNL     1     -56.056 -56.495 -61.514  0.00  0.00    +0.000 C 
ATOM     25  C   UNL     1     -56.262 -58.689 -62.784  0.00  0.00    +0.000 A 
ATOM     26  C   UNL     1     -57.343 -56.840 -60.747  0.00  0.00    +0.000 C 
ATOM     27  C   UNL     1     -58.181 -55.635 -60.323  0.00  0.00    +0.000 C 
ATOM     28  C   UNL     1     -57.116 -57.665 -59.488  0.00  0.00    +0.000 C 
ATOM     29  C   UNL     1     -57.157 -59.669 -62.318  0.00  0.00    +0.000 A 
ATOM     30  C   UNL     1     -59.483 -56.071 -59.586  0.00  0.00    +0.000 C 
ATOM     31  C   UNL     1     -59.468 -57.518 -58.943  0.00  0.00    +0.000 C 
ATOM     32  C   UNL     1     -57.441 -60.185 -60.916  0.00  0.00    +0.000 C 
ATOM     33  C   UNL     1     -58.630 -59.471 -60.205  0.00  0.00    +0.000 C 
ATOM     34  C   UNL     1     -57.885 -60.154 -63.468  0.00  0.00    +0.000 A 
ATOM     35  C   UNL     1     -57.448 -59.451 -64.580  0.00  0.00    +0.000 A 
ATOM     36  C   UNL     1     -58.896 -61.124 -63.652  0.00  0.00    +0.000 A 
ATOM     37  C   UNL     1     -57.952 -59.663 -65.870  0.00  0.00    +0.000 A 
ATOM     38  C   UNL     1     -59.414 -61.354 -64.932  0.00  0.00    +0.000 A 
ATOM     39  C   UNL     1     -58.946 -60.632 -66.025  0.00  0.00    +0.000 A 
ATOM     40  H   UNL     1     -56.013 -57.927 -64.755  0.00  0.00    +0.000 HD
BRANCH  23  42
ATOM     41  O   UNL     1     -54.123 -57.982 -59.887  0.00  0.00    +0.000 OA
ATOM     42  C   UNL     1     -54.390 -58.419 -60.999  0.00  0.00    +0.000 C 
BRANCH  42  43
ATOM     43  O   UNL     1     -53.994 -59.667 -61.422  0.00  0.00    +0.000 OA
ATOM     44  C   UNL     1     -53.731 -60.582 -60.359  0.00  0.00    +0.000 C 
ENDBRANCH  42  43
ENDBRANCH  23  42
BRANCH  30  45
ATOM     45  O   UNL     1     -59.644 -55.122 -58.502  0.00  0.00    +0.000 OA
ATOM     46  H   UNL     1     -60.351 -55.460 -57.923  0.00  0.00    +0.000 HD
ENDBRANCH  30  45
BRANCH  30  47
ATOM     47  C   UNL     1     -60.736 -55.844 -60.465  0.00  0.00    +0.000 C 
ATOM     48  C   UNL     1     -60.866 -54.481 -61.122  0.00  0.00    +0.000 C 
ENDBRANCH  30  47
ENDBRANCH  19  23
BRANCH   7  49
ATOM     49  O   UNL     1     -51.523 -55.681 -69.310  0.00  0.00    +0.000 OA
ATOM     50  H   UNL     1     -51.365 -54.922 -68.711  0.00  0.00    +0.000 HD
ENDBRANCH   7  49
BRANCH   7  52
ATOM     51  O   UNL     1     -49.068 -57.603 -67.496  0.00  0.00    +0.000 OA
ATOM     52  C   UNL     1     -49.671 -56.934 -68.324  0.00  0.00    +0.000 C 
BRANCH  52  53
ATOM     53  O   UNL     1     -49.048 -56.164 -69.276  0.00  0.00    +0.000 OA
ATOM     54  C   UNL     1     -48.064 -55.273 -68.748  0.00  0.00    +0.000 C 
ENDBRANCH  52  53
ENDBRANCH   7  52
BRANCH  20  55
ATOM     55  O   UNL     1     -53.567 -55.418 -61.732  0.00  0.00    +0.000 OA
ATOM     56  C   UNL     1     -52.395 -55.060 -61.007  0.00  0.00    +0.000 C 
ENDBRANCH  20  55
BRANCH   6  57
ATOM     57  C   UNL     1     -54.164 -57.319 -69.712  0.00  0.00    +0.000 C 
ATOM     58  C   UNL     1     -55.585 -57.201 -69.156  0.00  0.00    +0.000 C 
ENDBRANCH   6  57
BRANCH   9  59
ATOM     59  O   UNL     1     -50.944 -59.284 -69.168  0.00  0.00    +0.000 OA
BRANCH  59  61
ATOM     60  O   UNL     1     -50.080 -59.171 -71.287  0.00  0.00    +0.000 OA
ATOM     61  C   UNL     1     -50.284 -59.782 -70.248  0.00  0.00    +0.000 C 
ATOM     62  C   UNL     1     -49.812 -61.175 -69.966  0.00  0.00    +0.000 C 
ENDBRANCH  59  61
ENDBRANCH   9  59
TORSDOF 12
ENDMDL
MODEL 5
REMARK VINA RESULT:      -5.1     50.745     55.209
REMARK  Name = 
REMARK  19 active torsions:
REMARK  status: ('A' for Active; 'I' for Inactive)
REMARK    1  A    between atoms: O_1  and  C_20
REMARK    2  A    between atoms: O_1  and  C_36
REMARK    3  A    between atoms: O_2  and  C_18
REMARK    4  A    between atoms: O_3  and  C_28
REMARK    5  A    between atoms: O_3  and  C_42
REMARK    6  A    between atoms: O_5  and  C_34
REMARK    7  A    between atoms: O_5  and  C_50
REMARK    8  A    between atoms: O_7  and  C_40
REMARK    9  A    between atoms: O_7  and  C_56
REMARK   10  A    between atoms: O_9  and  C_46
REMARK   11  A    between atoms: N_11  and  C_30
REMARK   12  A    between atoms: C_17  and  C_23
REMARK   13  A    between atoms: C_18  and  C_28
REMARK   14  A    between atoms: C_23  and  C_32
REMARK   15  A    between atoms: C_33  and  C_35
REMARK   16  A    between atoms: C_35  and  C_40
REMARK   17  A    between atoms: C_36  and  C_41
REMARK   18  A    between atoms: C_46  and  C_53
REMARK   19  A    between atoms: C_53  and  C_57
REMARK                            x       y       z     vdW  Elec       q    Type
REMARK                         _______ _______ _______ _____ _____    ______ ____
ROOT
ATOM      1  N   UNL     1     -53.518 -56.496 -67.621  0.00  0.00    +0.000 NA
ATOM      2  N   UNL     1     -49.022 -58.098 -67.645  0.00  0.00    +0.000 N 
ATOM      3  C   UNL     1     -51.325 -57.287 -67.671  0.00  0.00    +0.000 C 
ATOM      4  C   UNL     1     -52.430 -56.736 -68.588  0.00  0.00    +0.000 C 
ATOM      5  C   UNL     1     -50.242 -58.004 -68.501  0.00  0.00    +0.000 C 
ATOM      6  C   UNL     1     -52.757 -57.678 -69.838  0.00  0.00    +0.000 C 
ATOM      7  C   UNL     1     -50.701 -59.255 -69.268  0.00  0.00    +0.000 C 
ATOM      8  C   UNL     1     -52.071 -58.043 -66.555  0.00  0.00    +0.000 C 
ATOM      9  C   UNL     1     -52.212 -59.164 -69.663  0.00  0.00    +0.000 C 
ATOM     10  C   UNL     1     -50.396 -56.306 -66.982  0.00  0.00    +0.000 A 
ATOM     11  C   UNL     1     -53.527 -57.597 -66.665  0.00  0.00    +0.000 C 
ATOM     12  C   UNL     1     -49.106 -56.854 -66.947  0.00  0.00    +0.000 A 
ATOM     13  C   UNL     1     -54.263 -57.765 -70.097  0.00  0.00    +0.000 C 
ATOM     14  C   UNL     1     -54.815 -56.216 -68.217  0.00  0.00    +0.000 C 
ATOM     15  C   UNL     1     -55.170 -57.095 -69.372  0.00  0.00    +0.000 C 
ATOM     16  C   UNL     1     -50.691 -55.079 -66.397  0.00  0.00    +0.000 A 
ATOM     17  C   UNL     1     -47.743 -58.333 -68.315  0.00  0.00    +0.000 C 
ATOM     18  C   UNL     1     -48.098 -56.184 -66.281  0.00  0.00    +0.000 A 
ATOM     19  C   UNL     1     -49.684 -54.369 -65.715  0.00  0.00    +0.000 A 
ATOM     20  C   UNL     1     -48.386 -54.956 -65.662  0.00  0.00    +0.000 A 
ENDROOT
BRANCH  19  23
ATOM     21  N   UNL     1     -50.146 -49.291 -62.786  0.00  0.00    +0.000 NA
ATOM     22  N   UNL     1     -49.336 -51.977 -67.249  0.00  0.00    +0.000 N 
ATOM     23  C   UNL     1     -49.970 -52.983 -65.009  0.00  0.00    +0.000 C 
ATOM     24  C   UNL     1     -48.814 -52.610 -63.972  0.00  0.00    +0.000 C 
ATOM     25  C   UNL     1     -50.032 -51.824 -66.062  0.00  0.00    +0.000 A 
ATOM     26  C   UNL     1     -48.769 -51.156 -63.474  0.00  0.00    +0.000 C 
ATOM     27  C   UNL     1     -47.558 -50.809 -62.609  0.00  0.00    +0.000 C 
ATOM     28  C   UNL     1     -49.996 -50.731 -62.679  0.00  0.00    +0.000 C 
ATOM     29  C   UNL     1     -50.574 -50.527 -66.092  0.00  0.00    +0.000 A 
ATOM     30  C   UNL     1     -47.569 -49.312 -62.179  0.00  0.00    +0.000 C 
ATOM     31  C   UNL     1     -48.977 -48.588 -62.214  0.00  0.00    +0.000 C 
ATOM     32  C   UNL     1     -51.364 -49.744 -65.056  0.00  0.00    +0.000 C 
ATOM     33  C   UNL     1     -50.489 -48.821 -64.154  0.00  0.00    +0.000 C 
ATOM     34  C   UNL     1     -50.211 -49.949 -67.366  0.00  0.00    +0.000 A 
ATOM     35  C   UNL     1     -49.446 -50.878 -68.055  0.00  0.00    +0.000 A 
ATOM     36  C   UNL     1     -50.456 -48.702 -67.984  0.00  0.00    +0.000 A 
ATOM     37  C   UNL     1     -48.916 -50.642 -69.330  0.00  0.00    +0.000 A 
ATOM     38  C   UNL     1     -49.938 -48.445 -69.259  0.00  0.00    +0.000 A 
ATOM     39  C   UNL     1     -49.179 -49.404 -69.921  0.00  0.00    +0.000 A 
ATOM     40  H   UNL     1     -48.821 -52.808 -67.510  0.00  0.00    +0.000 HD
BRANCH  23  42
ATOM     41  O   UNL     1     -52.434 -52.775 -64.609  0.00  0.00    +0.000 OA
ATOM     42  C   UNL     1     -51.331 -53.179 -64.263  0.00  0.00    +0.000 C 
BRANCH  42  43
ATOM     43  O   UNL     1     -51.137 -53.925 -63.124  0.00  0.00    +0.000 OA
ATOM     44  C   UNL     1     -52.179 -54.864 -62.862  0.00  0.00    +0.000 C 
ENDBRANCH  42  43
ENDBRANCH  23  42
BRANCH  30  45
ATOM     45  O   UNL     1     -47.120 -49.308 -60.800  0.00  0.00    +0.000 OA
ATOM     46  H   UNL     1     -46.265 -48.843 -60.775  0.00  0.00    +0.000 HD
ENDBRANCH  30  45
BRANCH  30  47
ATOM     47  C   UNL     1     -46.485 -48.499 -62.924  0.00  0.00    +0.000 C 
ATOM     48  C   UNL     1     -46.811 -48.076 -64.345  0.00  0.00    +0.000 C 
ENDBRANCH  30  47
ENDBRANCH  19  23
BRANCH   7  49
ATOM     49  O   UNL     1     -49.953 -59.238 -70.527  0.00  0.00    +0.000 OA
ATOM     50  H   UNL     1     -49.677 -60.164 -70.688  0.00  0.00    +0.000 HD
ENDBRANCH   7  49
BRANCH   7  52
ATOM     51  O   UNL     1     -50.520 -60.789 -67.323  0.00  0.00    +0.000 OA
ATOM     52  C   UNL     1     -50.363 -60.567 -68.516  0.00  0.00    +0.000 C 
BRANCH  52  53
ATOM     53  O   UNL     1     -49.921 -61.510 -69.412  0.00  0.00    +0.000 OA
ATOM     54  C   UNL     1     -50.287 -62.849 -69.071  0.00  0.00    +0.000 C 
ENDBRANCH  52  53
ENDBRANCH   7  52
BRANCH  20  55
ATOM     55  O   UNL     1     -47.399 -54.242 -65.032  0.00  0.00    +0.000 OA
ATOM     56  C   UNL     1     -46.102 -54.356 -65.612  0.00  0.00    +0.000 C 
ENDBRANCH  20  55
BRANCH   6  57
ATOM     57  C   UNL     1     -52.125 -57.065 -71.142  0.00  0.00    +0.000 C 
ATOM     58  C   UNL     1     -51.438 -55.706 -70.994  0.00  0.00    +0.000 C 
ENDBRANCH   6  57
BRANCH   9  59
ATOM     59  O   UNL     1     -53.065 -59.850 -68.715  0.00  0.00    +0.000 OA
BRANCH  59  61
ATOM     60  O   UNL     1     -54.449 -61.658 -68.469  0.00  0.00    +0.000 OA
ATOM     61  C   UNL     1     -53.678 -60.987 -69.140  0.00  0.00    +0.000 C 
ATOM     62  C   UNL     1     -53.301 -61.277 -70.559  0.00  0.00    +0.000 C 
ENDBRANCH  59  61
ENDBRANCH   9  59
TORSDOF 12
ENDMDL
MODEL 6
REMARK VINA RESULT:      -5.1     36.998     41.901
REMARK  Name = 
REMARK  19 active torsions:
REMARK  status: ('A' for Active; 'I' for Inactive)
REMARK    1  A    between atoms: O_1  and  C_20
REMARK    2  A    between atoms: O_1  and  C_36
REMARK    3  A    between atoms: O_2  and  C_18
REMARK    4  A    between atoms: O_3  and  C_28
REMARK    5  A    between atoms: O_3  and  C_42
REMARK    6  A    between atoms: O_5  and  C_34
REMARK    7  A    between atoms: O_5  and  C_50
REMARK    8  A    between atoms: O_7  and  C_40
REMARK    9  A    between atoms: O_7  and  C_56
REMARK   10  A    between atoms: O_9  and  C_46
REMARK   11  A    between atoms: N_11  and  C_30
REMARK   12  A    between atoms: C_17  and  C_23
REMARK   13  A    between atoms: C_18  and  C_28
REMARK   14  A    between atoms: C_23  and  C_32
REMARK   15  A    between atoms: C_33  and  C_35
REMARK   16  A    between atoms: C_35  and  C_40
REMARK   17  A    between atoms: C_36  and  C_41
REMARK   18  A    between atoms: C_46  and  C_53
REMARK   19  A    between atoms: C_53  and  C_57
REMARK                            x       y       z     vdW  Elec       q    Type
REMARK                         _______ _______ _______ _____ _____    ______ ____
ROOT
ATOM      1  N   UNL     1     -58.721 -43.109 -54.518  0.00  0.00    +0.000 NA
ATOM      2  N   UNL     1     -59.612 -44.280 -49.977  0.00  0.00    +0.000 N 
ATOM      3  C   UNL     1     -59.140 -43.648 -52.288  0.00  0.00    +0.000 C 
ATOM      4  C   UNL     1     -58.859 -42.446 -53.208  0.00  0.00    +0.000 C 
ATOM      5  C   UNL     1     -58.903 -43.265 -50.814  0.00  0.00    +0.000 C 
ATOM      6  C   UNL     1     -57.642 -41.532 -52.718  0.00  0.00    +0.000 C 
ATOM      7  C   UNL     1     -57.461 -42.883 -50.441  0.00  0.00    +0.000 C 
ATOM      8  C   UNL     1     -58.365 -44.822 -52.917  0.00  0.00    +0.000 C 
ATOM      9  C   UNL     1     -56.701 -42.257 -51.657  0.00  0.00    +0.000 C 
ATOM     10  C   UNL     1     -60.572 -44.115 -52.120  0.00  0.00    +0.000 A 
ATOM     11  C   UNL     1     -57.991 -44.356 -54.322  0.00  0.00    +0.000 C 
ATOM     12  C   UNL     1     -60.762 -44.518 -50.791  0.00  0.00    +0.000 A 
ATOM     13  C   UNL     1     -56.763 -41.091 -53.891  0.00  0.00    +0.000 C 
ATOM     14  C   UNL     1     -58.185 -42.266 -55.575  0.00  0.00    +0.000 C 
ATOM     15  C   UNL     1     -57.026 -41.416 -55.164  0.00  0.00    +0.000 C 
ATOM     16  C   UNL     1     -61.579 -44.222 -53.074  0.00  0.00    +0.000 A 
ATOM     17  C   UNL     1     -59.912 -43.922 -48.592  0.00  0.00    +0.000 C 
ATOM     18  C   UNL     1     -61.968 -45.077 -50.414  0.00  0.00    +0.000 A 
ATOM     19  C   UNL     1     -62.822 -44.783 -52.720  0.00  0.00    +0.000 A 
ATOM     20  C   UNL     1     -62.987 -45.216 -51.371  0.00  0.00    +0.000 A 
ENDROOT
BRANCH  19  23
ATOM     21  N   UNL     1     -66.708 -45.303 -57.102  0.00  0.00    +0.000 NA
ATOM     22  N   UNL     1     -63.734 -47.433 -53.306  0.00  0.00    +0.000 N 
ATOM     23  C   UNL     1     -63.992 -44.952 -53.769  0.00  0.00    +0.000 C 
ATOM     24  C   UNL     1     -63.480 -44.687 -55.259  0.00  0.00    +0.000 C 
ATOM     25  C   UNL     1     -64.564 -46.411 -53.734  0.00  0.00    +0.000 A 
ATOM     26  C   UNL     1     -64.399 -45.148 -56.402  0.00  0.00    +0.000 C 
ATOM     27  C   UNL     1     -63.799 -45.016 -57.801  0.00  0.00    +0.000 C 
ATOM     28  C   UNL     1     -65.744 -44.437 -56.446  0.00  0.00    +0.000 C 
ATOM     29  C   UNL     1     -65.762 -47.026 -54.139  0.00  0.00    +0.000 A 
ATOM     30  C   UNL     1     -64.776 -45.538 -58.897  0.00  0.00    +0.000 C 
ATOM     31  C   UNL     1     -66.308 -45.588 -58.497  0.00  0.00    +0.000 C 
ATOM     32  C   UNL     1     -67.019 -46.455 -54.775  0.00  0.00    +0.000 C 
ATOM     33  C   UNL     1     -67.036 -46.531 -56.332  0.00  0.00    +0.000 C 
ATOM     34  C   UNL     1     -65.616 -48.440 -53.880  0.00  0.00    +0.000 A 
ATOM     35  C   UNL     1     -64.347 -48.653 -53.363  0.00  0.00    +0.000 A 
ATOM     36  C   UNL     1     -66.456 -49.563 -54.060  0.00  0.00    +0.000 A 
ATOM     37  C   UNL     1     -63.866 -49.918 -53.005  0.00  0.00    +0.000 A 
ATOM     38  C   UNL     1     -65.997 -50.837 -53.708  0.00  0.00    +0.000 A 
ATOM     39  C   UNL     1     -64.719 -51.010 -53.187  0.00  0.00    +0.000 A 
ATOM     40  H   UNL     1     -62.789 -47.301 -52.968  0.00  0.00    +0.000 HD
BRANCH  23  42
ATOM     41  O   UNL     1     -66.142 -44.086 -52.820  0.00  0.00    +0.000 OA
ATOM     42  C   UNL     1     -65.062 -43.886 -53.362  0.00  0.00    +0.000 C 
BRANCH  42  43
ATOM     43  O   UNL     1     -64.609 -42.626 -53.673  0.00  0.00    +0.000 OA
ATOM     44  C   UNL     1     -65.650 -41.684 -53.931  0.00  0.00    +0.000 C 
ENDBRANCH  42  43
ENDBRANCH  23  42
BRANCH  30  45
ATOM     45  O   UNL     1     -64.652 -44.602 -59.997  0.00  0.00    +0.000 OA
ATOM     46  H   UNL     1     -65.450 -44.694 -60.548  0.00  0.00    +0.000 HD
ENDBRANCH  30  45
BRANCH  30  47
ATOM     47  C   UNL     1     -64.293 -46.879 -59.496  0.00  0.00    +0.000 C 
ATOM     48  C   UNL     1     -65.370 -47.826 -59.998  0.00  0.00    +0.000 C 
ENDBRANCH  30  47
ENDBRANCH  19  23
BRANCH   7  49
ATOM     49  O   UNL     1     -57.585 -41.814 -49.448  0.00  0.00    +0.000 OA
ATOM     50  H   UNL     1     -56.700 -41.398 -49.389  0.00  0.00    +0.000 HD
ENDBRANCH   7  49
BRANCH   7  52
ATOM     51  O   UNL     1     -56.391 -45.121 -50.330  0.00  0.00    +0.000 OA
ATOM     52  C   UNL     1     -56.684 -44.059 -49.799  0.00  0.00    +0.000 C 
BRANCH  52  53
ATOM     53  O   UNL     1     -56.284 -43.709 -48.532  0.00  0.00    +0.000 OA
ATOM     54  C   UNL     1     -56.348 -44.780 -47.587  0.00  0.00    +0.000 C 
ENDBRANCH  52  53
ENDBRANCH   7  52
BRANCH  20  55
ATOM     55  O   UNL     1     -64.212 -45.724 -51.021  0.00  0.00    +0.000 OA
ATOM     56  C   UNL     1     -64.718 -45.276 -49.767  0.00  0.00    +0.000 C 
ENDBRANCH  20  55
BRANCH   6  57
ATOM     57  C   UNL     1     -58.200 -40.211 -52.070  0.00  0.00    +0.000 C 
ATOM     58  C   UNL     1     -59.413 -39.576 -52.752  0.00  0.00    +0.000 C 
ENDBRANCH   6  57
BRANCH   9  59
ATOM     59  O   UNL     1     -55.897 -43.235 -52.359  0.00  0.00    +0.000 OA
BRANCH  59  61
ATOM     60  O   UNL     1     -53.920 -42.389 -51.569  0.00  0.00    +0.000 OA
ATOM     61  C   UNL     1     -54.555 -43.020 -52.402  0.00  0.00    +0.000 C 
ATOM     62  C   UNL     1     -53.962 -43.700 -53.597  0.00  0.00    +0.000 C 
ENDBRANCH  59  61
ENDBRANCH   9  59
TORSDOF 12
ENDMDL
MODEL 7
REMARK VINA RESULT:      -5.1     36.516     42.804
REMARK  Name = 
REMARK  19 active torsions:
REMARK  status: ('A' for Active; 'I' for Inactive)
REMARK    1  A    between atoms: O_1  and  C_20
REMARK    2  A    between atoms: O_1  and  C_36
REMARK    3  A    between atoms: O_2  and  C_18
REMARK    4  A    between atoms: O_3  and  C_28
REMARK    5  A    between atoms: O_3  and  C_42
REMARK    6  A    between atoms: O_5  and  C_34
REMARK    7  A    between atoms: O_5  and  C_50
REMARK    8  A    between atoms: O_7  and  C_40
REMARK    9  A    between atoms: O_7  and  C_56
REMARK   10  A    between atoms: O_9  and  C_46
REMARK   11  A    between atoms: N_11  and  C_30
REMARK   12  A    between atoms: C_17  and  C_23
REMARK   13  A    between atoms: C_18  and  C_28
REMARK   14  A    between atoms: C_23  and  C_32
REMARK   15  A    between atoms: C_33  and  C_35
REMARK   16  A    between atoms: C_35  and  C_40
REMARK   17  A    between atoms: C_36  and  C_41
REMARK   18  A    between atoms: C_46  and  C_53
REMARK   19  A    between atoms: C_53  and  C_57
REMARK                            x       y       z     vdW  Elec       q    Type
REMARK                         _______ _______ _______ _____ _____    ______ ____
ROOT
ATOM      1  N   UNL     1     -65.451 -41.724 -52.581  0.00  0.00    +0.000 NA
ATOM      2  N   UNL     1     -63.059 -45.547 -51.018  0.00  0.00    +0.000 N 
ATOM      3  C   UNL     1     -64.296 -43.585 -51.782  0.00  0.00    +0.000 C 
ATOM      4  C   UNL     1     -65.499 -42.681 -51.460  0.00  0.00    +0.000 C 
ATOM      5  C   UNL     1     -63.885 -44.399 -50.539  0.00  0.00    +0.000 C 
ATOM      6  C   UNL     1     -65.471 -42.077 -49.980  0.00  0.00    +0.000 C 
ATOM      7  C   UNL     1     -63.384 -43.582 -49.336  0.00  0.00    +0.000 C 
ATOM      8  C   UNL     1     -63.276 -42.662 -52.474  0.00  0.00    +0.000 C 
ATOM      9  C   UNL     1     -64.036 -42.161 -49.295  0.00  0.00    +0.000 C 
ATOM     10  C   UNL     1     -64.504 -44.770 -52.705  0.00  0.00    +0.000 A 
ATOM     11  C   UNL     1     -64.054 -41.401 -52.844  0.00  0.00    +0.000 C 
ATOM     12  C   UNL     1     -63.724 -45.841 -52.248  0.00  0.00    +0.000 A 
ATOM     13  C   UNL     1     -65.906 -40.610 -49.964  0.00  0.00    +0.000 C 
ATOM     14  C   UNL     1     -66.311 -40.561 -52.428  0.00  0.00    +0.000 C 
ATOM     15  C   UNL     1     -66.292 -39.949 -51.065  0.00  0.00    +0.000 C 
ATOM     16  C   UNL     1     -65.266 -44.856 -53.865  0.00  0.00    +0.000 A 
ATOM     17  C   UNL     1     -62.907 -46.691 -50.121  0.00  0.00    +0.000 C 
ATOM     18  C   UNL     1     -63.671 -47.009 -52.984  0.00  0.00    +0.000 A 
ATOM     19  C   UNL     1     -65.239 -46.036 -54.635  0.00  0.00    +0.000 A 
ATOM     20  C   UNL     1     -64.415 -47.103 -54.172  0.00  0.00    +0.000 A 
ENDROOT
BRANCH  19  23
ATOM     21  N   UNL     1     -68.480 -45.918 -59.540  0.00  0.00    +0.000 NA
ATOM     22  N   UNL     1     -63.802 -46.028 -57.112  0.00  0.00    +0.000 N 
ATOM     23  C   UNL     1     -66.064 -46.179 -55.976  0.00  0.00    +0.000 C 
ATOM     24  C   UNL     1     -66.861 -44.837 -56.314  0.00  0.00    +0.000 C 
ATOM     25  C   UNL     1     -65.113 -46.465 -57.188  0.00  0.00    +0.000 A 
ATOM     26  C   UNL     1     -67.420 -44.700 -57.740  0.00  0.00    +0.000 C 
ATOM     27  C   UNL     1     -68.035 -43.339 -58.062  0.00  0.00    +0.000 C 
ATOM     28  C   UNL     1     -68.472 -45.739 -58.099  0.00  0.00    +0.000 C 
ATOM     29  C   UNL     1     -65.268 -47.011 -58.475  0.00  0.00    +0.000 A 
ATOM     30  C   UNL     1     -68.542 -43.272 -59.533  0.00  0.00    +0.000 C 
ATOM     31  C   UNL     1     -68.838 -44.661 -60.232  0.00  0.00    +0.000 C 
ATOM     32  C   UNL     1     -66.488 -47.575 -59.186  0.00  0.00    +0.000 C 
ATOM     33  C   UNL     1     -67.241 -46.540 -60.075  0.00  0.00    +0.000 C 
ATOM     34  C   UNL     1     -63.982 -46.923 -59.126  0.00  0.00    +0.000 A 
ATOM     35  C   UNL     1     -63.099 -46.310 -58.250  0.00  0.00    +0.000 A 
ATOM     36  C   UNL     1     -63.498 -47.299 -60.399  0.00  0.00    +0.000 A 
ATOM     37  C   UNL     1     -61.757 -46.057 -58.563  0.00  0.00    +0.000 A 
ATOM     38  C   UNL     1     -62.161 -47.057 -60.734  0.00  0.00    +0.000 A 
ATOM     39  C   UNL     1     -61.304 -46.444 -59.827  0.00  0.00    +0.000 A 
ATOM     40  H   UNL     1     -63.395 -45.572 -56.305  0.00  0.00    +0.000 HD
BRANCH  23  42
ATOM     41  O   UNL     1     -67.060 -48.463 -56.238  0.00  0.00    +0.000 OA
ATOM     42  C   UNL     1     -67.063 -47.355 -55.715  0.00  0.00    +0.000 C 
BRANCH  42  43
ATOM     43  O   UNL     1     -67.976 -46.990 -54.754  0.00  0.00    +0.000 OA
ATOM     44  C   UNL     1     -68.319 -48.040 -53.851  0.00  0.00    +0.000 C 
ENDBRANCH  42  43
ENDBRANCH  23  42
BRANCH  30  45
ATOM     45  O   UNL     1     -69.796 -42.547 -59.472  0.00  0.00    +0.000 OA
ATOM     46  H   UNL     1     -69.602 -41.614 -59.671  0.00  0.00    +0.000 HD
ENDBRANCH  30  45
BRANCH  30  47
ATOM     47  C   UNL     1     -67.637 -42.370 -60.405  0.00  0.00    +0.000 C 
ATOM     48  C   UNL     1     -66.221 -42.863 -60.649  0.00  0.00    +0.000 C 
ENDBRANCH  30  47
ENDBRANCH  19  23
BRANCH   7  49
ATOM     49  O   UNL     1     -63.878 -44.288 -48.152  0.00  0.00    +0.000 OA
ATOM     50  H   UNL     1     -64.513 -43.679 -47.721  0.00  0.00    +0.000 HD
ENDBRANCH   7  49
BRANCH   7  52
ATOM     51  O   UNL     1     -61.064 -43.385 -50.200  0.00  0.00    +0.000 OA
ATOM     52  C   UNL     1     -61.837 -43.527 -49.263  0.00  0.00    +0.000 C 
BRANCH  52  53
ATOM     53  O   UNL     1     -61.436 -43.580 -47.949  0.00  0.00    +0.000 OA
ATOM     54  C   UNL     1     -60.384 -44.514 -47.702  0.00  0.00    +0.000 C 
ENDBRANCH  52  53
ENDBRANCH   7  52
BRANCH  20  55
ATOM     55  O   UNL     1     -64.422 -48.264 -54.902  0.00  0.00    +0.000 OA
ATOM     56  C   UNL     1     -64.270 -49.460 -54.143  0.00  0.00    +0.000 C 
ENDBRANCH  20  55
BRANCH   6  57
ATOM     57  C   UNL     1     -66.502 -42.847 -49.075  0.00  0.00    +0.000 C 
ATOM     58  C   UNL     1     -67.508 -43.745 -49.798  0.00  0.00    +0.000 C 
ENDBRANCH   6  57
BRANCH   9  59
ATOM     59  O   UNL     1     -63.188 -41.155 -49.897  0.00  0.00    +0.000 OA
BRANCH  59  61
ATOM     60  O   UNL     1     -62.821 -40.170 -47.861  0.00  0.00    +0.000 OA
ATOM     61  C   UNL     1     -62.608 -40.250 -49.063  0.00  0.00    +0.000 C 
ATOM     62  C   UNL     1     -61.646 -39.390 -49.823  0.00  0.00    +0.000 C 
ENDBRANCH  59  61
ENDBRANCH   9  59
TORSDOF 12
ENDMDL
MODEL 8
REMARK VINA RESULT:      -5.0     41.250     48.495
REMARK  Name = 
REMARK  19 active torsions:
REMARK  status: ('A' for Active; 'I' for Inactive)
REMARK    1  A    between atoms: O_1  and  C_20
REMARK    2  A    between atoms: O_1  and  C_36
REMARK    3  A    between atoms: O_2  and  C_18
REMARK    4  A    between atoms: O_3  and  C_28
REMARK    5  A    between atoms: O_3  and  C_42
REMARK    6  A    between atoms: O_5  and  C_34
REMARK    7  A    between atoms: O_5  and  C_50
REMARK    8  A    between atoms: O_7  and  C_40
REMARK    9  A    between atoms: O_7  and  C_56
REMARK   10  A    between atoms: O_9  and  C_46
REMARK   11  A    between atoms: N_11  and  C_30
REMARK   12  A    between atoms: C_17  and  C_23
REMARK   13  A    between atoms: C_18  and  C_28
REMARK   14  A    between atoms: C_23  and  C_32
REMARK   15  A    between atoms: C_33  and  C_35
REMARK   16  A    between atoms: C_35  and  C_40
REMARK   17  A    between atoms: C_36  and  C_41
REMARK   18  A    between atoms: C_46  and  C_53
REMARK   19  A    between atoms: C_53  and  C_57
REMARK                            x       y       z     vdW  Elec       q    Type
REMARK                         _______ _______ _______ _____ _____    ______ ____
ROOT
ATOM      1  N   UNL     1     -58.648 -59.366 -60.613  0.00  0.00    +0.000 NA
ATOM      2  N   UNL     1     -62.290 -59.574 -57.535  0.00  0.00    +0.000 N 
ATOM      3  C   UNL     1     -60.427 -59.429 -59.107  0.00  0.00    +0.000 C 
ATOM      4  C   UNL     1     -59.732 -58.498 -60.116  0.00  0.00    +0.000 C 
ATOM      5  C   UNL     1     -61.326 -58.616 -58.153  0.00  0.00    +0.000 C 
ATOM      6  C   UNL     1     -59.313 -57.083 -59.501  0.00  0.00    +0.000 C 
ATOM      7  C   UNL     1     -60.602 -57.610 -57.243  0.00  0.00    +0.000 C 
ATOM      8  C   UNL     1     -59.302 -60.317 -58.542  0.00  0.00    +0.000 C 
ATOM      9  C   UNL     1     -59.293 -57.072 -57.909  0.00  0.00    +0.000 C 
ATOM     10  C   UNL     1     -61.509 -60.366 -59.609  0.00  0.00    +0.000 A 
ATOM     11  C   UNL     1     -58.118 -60.123 -59.485  0.00  0.00    +0.000 C 
ATOM     12  C   UNL     1     -62.517 -60.452 -58.639  0.00  0.00    +0.000 A 
ATOM     13  C   UNL     1     -57.927 -56.649 -59.985  0.00  0.00    +0.000 C 
ATOM     14  C   UNL     1     -57.633 -58.685 -61.402  0.00  0.00    +0.000 C 
ATOM     15  C   UNL     1     -57.193 -57.370 -60.845  0.00  0.00    +0.000 C 
ATOM     16  C   UNL     1     -61.552 -61.108 -60.785  0.00  0.00    +0.000 A 
ATOM     17  C   UNL     1     -63.505 -59.019 -56.940  0.00  0.00    +0.000 C 
ATOM     18  C   UNL     1     -63.571 -61.326 -58.827  0.00  0.00    +0.000 A 
ATOM     19  C   UNL     1     -62.616 -62.003 -61.009  0.00  0.00    +0.000 A 
ATOM     20  C   UNL     1     -63.616 -62.101 -59.997  0.00  0.00    +0.000 A 
ENDROOT
BRANCH  19  23
ATOM     21  N   UNL     1     -63.540 -65.009 -65.977  0.00  0.00    +0.000 NA
ATOM     22  N   UNL     1     -61.082 -61.198 -63.289  0.00  0.00    +0.000 N 
ATOM     23  C   UNL     1     -62.702 -62.890 -62.315  0.00  0.00    +0.000 C 
ATOM     24  C   UNL     1     -64.103 -62.695 -63.058  0.00  0.00    +0.000 C 
ATOM     25  C   UNL     1     -61.583 -62.488 -63.335  0.00  0.00    +0.000 A 
ATOM     26  C   UNL     1     -64.201 -63.210 -64.503  0.00  0.00    +0.000 C 
ATOM     27  C   UNL     1     -65.503 -62.863 -65.223  0.00  0.00    +0.000 C 
ATOM     28  C   UNL     1     -64.027 -64.716 -64.641  0.00  0.00    +0.000 C 
ATOM     29  C   UNL     1     -60.962 -63.108 -64.435  0.00  0.00    +0.000 A 
ATOM     30  C   UNL     1     -65.507 -63.387 -66.690  0.00  0.00    +0.000 C 
ATOM     31  C   UNL     1     -64.509 -64.576 -67.006  0.00  0.00    +0.000 C 
ATOM     32  C   UNL     1     -61.151 -64.485 -65.051  0.00  0.00    +0.000 C 
ATOM     33  C   UNL     1     -62.162 -64.517 -66.237  0.00  0.00    +0.000 C 
ATOM     34  C   UNL     1     -60.041 -62.145 -64.994  0.00  0.00    +0.000 A 
ATOM     35  C   UNL     1     -60.143 -60.975 -64.257  0.00  0.00    +0.000 A 
ATOM     36  C   UNL     1     -59.139 -62.167 -66.082  0.00  0.00    +0.000 A 
ATOM     37  C   UNL     1     -59.392 -59.826 -64.532  0.00  0.00    +0.000 A 
ATOM     38  C   UNL     1     -58.377 -61.030 -66.375  0.00  0.00    +0.000 A 
ATOM     39  C   UNL     1     -58.503 -59.876 -65.609  0.00  0.00    +0.000 A 
ATOM     40  H   UNL     1     -61.357 -60.501 -62.609  0.00  0.00    +0.000 HD
BRANCH  23  42
ATOM     41  O   UNL     1     -63.409 -65.237 -61.798  0.00  0.00    +0.000 OA
ATOM     42  C   UNL     1     -62.549 -64.365 -61.817  0.00  0.00    +0.000 C 
BRANCH  42  43
ATOM     43  O   UNL     1     -61.256 -64.588 -61.407  0.00  0.00    +0.000 OA
ATOM     44  C   UNL     1     -60.832 -65.945 -61.539  0.00  0.00    +0.000 C 
ENDBRANCH  42  43
ENDBRANCH  23  42
BRANCH  30  45
ATOM     45  O   UNL     1     -66.850 -63.884 -66.914  0.00  0.00    +0.000 OA
ATOM     46  H   UNL     1     -67.253 -63.330 -67.605  0.00  0.00    +0.000 HD
ENDBRANCH  30  45
BRANCH  30  47
ATOM     47  C   UNL     1     -65.366 -62.231 -67.707  0.00  0.00    +0.000 C 
ATOM     48  C   UNL     1     -66.118 -60.950 -67.387  0.00  0.00    +0.000 C 
ENDBRANCH  30  47
ENDBRANCH  19  23
BRANCH   7  49
ATOM     49  O   UNL     1     -61.503 -56.461 -57.138  0.00  0.00    +0.000 OA
ATOM     50  H   UNL     1     -62.411 -56.829 -57.144  0.00  0.00    +0.000 HD
ENDBRANCH   7  49
BRANCH   7  52
ATOM     51  O   UNL     1     -59.946 -59.286 -55.532  0.00  0.00    +0.000 OA
ATOM     52  C   UNL     1     -60.356 -58.170 -55.820  0.00  0.00    +0.000 C 
BRANCH  52  53
ATOM     53  O   UNL     1     -60.593 -57.186 -54.890  0.00  0.00    +0.000 OA
ATOM     54  C   UNL     1     -61.393 -57.612 -53.786  0.00  0.00    +0.000 C 
ENDBRANCH  52  53
ENDBRANCH   7  52
BRANCH  20  55
ATOM     55  O   UNL     1     -64.672 -62.944 -60.238  0.00  0.00    +0.000 OA
ATOM     56  C   UNL     1     -65.140 -63.668 -59.104  0.00  0.00    +0.000 C 
ENDBRANCH  20  55
BRANCH   6  57
ATOM     57  C   UNL     1     -60.313 -55.974 -59.996  0.00  0.00    +0.000 C 
ATOM     58  C   UNL     1     -59.715 -54.597 -60.291  0.00  0.00    +0.000 C 
ENDBRANCH   6  57
BRANCH   9  59
ATOM     59  O   UNL     1     -58.120 -57.795 -57.466  0.00  0.00    +0.000 OA
BRANCH  59  61
ATOM     60  O   UNL     1     -57.524 -56.282 -55.853  0.00  0.00    +0.000 OA
ATOM     61  C   UNL     1     -57.228 -57.120 -56.693  0.00  0.00    +0.000 C 
ATOM     62  C   UNL     1     -55.834 -57.576 -56.994  0.00  0.00    +0.000 C 
ENDBRANCH  59  61
ENDBRANCH   9  59
TORSDOF 12
ENDMDL
MODEL 9
REMARK VINA RESULT:      -5.0     37.444     44.242
REMARK  Name = 
REMARK  19 active torsions:
REMARK  status: ('A' for Active; 'I' for Inactive)
REMARK    1  A    between atoms: O_1  and  C_20
REMARK    2  A    between atoms: O_1  and  C_36
REMARK    3  A    between atoms: O_2  and  C_18
REMARK    4  A    between atoms: O_3  and  C_28
REMARK    5  A    between atoms: O_3  and  C_42
REMARK    6  A    between atoms: O_5  and  C_34
REMARK    7  A    between atoms: O_5  and  C_50
REMARK    8  A    between atoms: O_7  and  C_40
REMARK    9  A    between atoms: O_7  and  C_56
REMARK   10  A    between atoms: O_9  and  C_46
REMARK   11  A    between atoms: N_11  and  C_30
REMARK   12  A    between atoms: C_17  and  C_23
REMARK   13  A    between atoms: C_18  and  C_28
REMARK   14  A    between atoms: C_23  and  C_32
REMARK   15  A    between atoms: C_33  and  C_35
REMARK   16  A    between atoms: C_35  and  C_40
REMARK   17  A    between atoms: C_36  and  C_41
REMARK   18  A    between atoms: C_46  and  C_53
REMARK   19  A    between atoms: C_53  and  C_57
REMARK                            x       y       z     vdW  Elec       q    Type
REMARK                         _______ _______ _______ _____ _____    ______ ____
ROOT
ATOM      1  N   UNL     1     -65.155 -45.824 -56.408  0.00  0.00    +0.000 NA
ATOM      2  N   UNL     1     -63.830 -44.945 -51.908  0.00  0.00    +0.000 N 
ATOM      3  C   UNL     1     -64.514 -45.432 -54.201  0.00  0.00    +0.000 C 
ATOM      4  C   UNL     1     -64.638 -46.561 -55.240  0.00  0.00    +0.000 C 
ATOM      5  C   UNL     1     -64.395 -46.018 -52.780  0.00  0.00    +0.000 C 
ATOM      6  C   UNL     1     -65.489 -47.813 -54.729  0.00  0.00    +0.000 C 
ATOM      7  C   UNL     1     -65.613 -46.809 -52.276  0.00  0.00    +0.000 C 
ATOM      8  C   UNL     1     -65.650 -44.449 -54.541  0.00  0.00    +0.000 C 
ATOM      9  C   UNL     1     -66.388 -47.484 -53.456  0.00  0.00    +0.000 C 
ATOM     10  C   UNL     1     -63.235 -44.618 -54.162  0.00  0.00    +0.000 A 
ATOM     11  C   UNL     1     -66.128 -44.846 -55.936  0.00  0.00    +0.000 C 
ATOM     12  C   UNL     1     -62.929 -44.322 -52.826  0.00  0.00    +0.000 A 
ATOM     13  C   UNL     1     -66.416 -48.347 -55.824  0.00  0.00    +0.000 C 
ATOM     14  C   UNL     1     -65.636 -46.663 -57.496  0.00  0.00    +0.000 C 
ATOM     15  C   UNL     1     -66.461 -47.830 -57.061  0.00  0.00    +0.000 C 
ATOM     16  C   UNL     1     -62.462 -44.145 -55.217  0.00  0.00    +0.000 A 
ATOM     17  C   UNL     1     -63.221 -45.354 -50.644  0.00  0.00    +0.000 C 
ATOM     18  C   UNL     1     -61.854 -43.504 -52.538  0.00  0.00    +0.000 A 
ATOM     19  C   UNL     1     -61.355 -43.313 -54.956  0.00  0.00    +0.000 A 
ATOM     20  C   UNL     1     -61.078 -42.997 -53.593  0.00  0.00    +0.000 A 
ENDROOT
BRANCH  19  23
ATOM     21  N   UNL     1     -57.483 -41.333 -58.913  0.00  0.00    +0.000 NA
ATOM     22  N   UNL     1     -61.112 -44.832 -57.371  0.00  0.00    +0.000 N 
ATOM     23  C   UNL     1     -60.458 -42.726 -56.118  0.00  0.00    +0.000 C 
ATOM     24  C   UNL     1     -58.904 -42.840 -55.766  0.00  0.00    +0.000 C 
ATOM     25  C   UNL     1     -60.685 -43.517 -57.451  0.00  0.00    +0.000 A 
ATOM     26  C   UNL     1     -57.912 -42.638 -56.924  0.00  0.00    +0.000 C 
ATOM     27  C   UNL     1     -56.450 -42.911 -56.573  0.00  0.00    +0.000 C 
ATOM     28  C   UNL     1     -57.950 -41.248 -57.540  0.00  0.00    +0.000 C 
ATOM     29  C   UNL     1     -60.469 -43.260 -58.817  0.00  0.00    +0.000 A 
ATOM     30  C   UNL     1     -55.518 -42.720 -57.806  0.00  0.00    +0.000 C 
ATOM     31  C   UNL     1     -56.084 -41.810 -58.972  0.00  0.00    +0.000 C 
ATOM     32  C   UNL     1     -59.924 -42.035 -59.534  0.00  0.00    +0.000 C 
ATOM     33  C   UNL     1     -58.391 -42.091 -59.812  0.00  0.00    +0.000 C 
ATOM     34  C   UNL     1     -60.837 -44.459 -59.533  0.00  0.00    +0.000 A 
ATOM     35  C   UNL     1     -61.231 -45.410 -58.604  0.00  0.00    +0.000 A 
ATOM     36  C   UNL     1     -60.850 -44.822 -60.899  0.00  0.00    +0.000 A 
ATOM     37  C   UNL     1     -61.647 -46.701 -58.955  0.00  0.00    +0.000 A 
ATOM     38  C   UNL     1     -61.264 -46.106 -61.274  0.00  0.00    +0.000 A 
ATOM     39  C   UNL     1     -61.657 -47.031 -60.312  0.00  0.00    +0.000 A 
ATOM     40  H   UNL     1     -61.333 -45.312 -56.508  0.00  0.00    +0.000 HD
BRANCH  23  42
ATOM     41  O   UNL     1     -60.266 -40.244 -55.840  0.00  0.00    +0.000 OA
ATOM     42  C   UNL     1     -60.881 -41.225 -56.240  0.00  0.00    +0.000 C 
BRANCH  42  43
ATOM     43  O   UNL     1     -62.076 -41.128 -56.913  0.00  0.00    +0.000 OA
ATOM     44  C   UNL     1     -62.276 -39.874 -57.563  0.00  0.00    +0.000 C 
ENDBRANCH  42  43
ENDBRANCH  23  42
BRANCH  30  45
ATOM     45  O   UNL     1     -54.331 -42.067 -57.290  0.00  0.00    +0.000 OA
ATOM     46  H   UNL     1     -53.745 -41.890 -58.048  0.00  0.00    +0.000 HD
ENDBRANCH  30  45
BRANCH  30  47
ATOM     47  C   UNL     1     -54.994 -44.075 -58.337  0.00  0.00    +0.000 C 
ATOM     48  C   UNL     1     -53.598 -44.075 -58.937  0.00  0.00    +0.000 C 
ENDBRANCH  30  47
ENDBRANCH  19  23
BRANCH   7  49
ATOM     49  O   UNL     1     -65.062 -47.905 -51.477  0.00  0.00    +0.000 OA
ATOM     50  H   UNL     1     -64.793 -48.596 -52.116  0.00  0.00    +0.000 HD
ENDBRANCH   7  49
BRANCH   7  52
ATOM     51  O   UNL     1     -66.964 -44.837 -51.605  0.00  0.00    +0.000 OA
ATOM     52  C   UNL     1     -66.538 -45.959 -51.369  0.00  0.00    +0.000 C 
BRANCH  52  53
ATOM     53  O   UNL     1     -66.893 -46.689 -50.261  0.00  0.00    +0.000 OA
ATOM     54  C   UNL     1     -66.864 -45.944 -49.042  0.00  0.00    +0.000 C 
ENDBRANCH  52  53
ENDBRANCH   7  52
BRANCH  20  55
ATOM     55  O   UNL     1     -59.976 -42.219 -53.341  0.00  0.00    +0.000 OA
ATOM     56  C   UNL     1     -60.097 -41.337 -52.229  0.00  0.00    +0.000 C 
ENDBRANCH  20  55
BRANCH   6  57
ATOM     57  C   UNL     1     -64.521 -48.997 -54.363  0.00  0.00    +0.000 C 
ATOM     58  C   UNL     1     -65.178 -50.330 -53.998  0.00  0.00    +0.000 C 
ENDBRANCH   6  57
BRANCH   9  59
ATOM     59  O   UNL     1     -67.516 -46.688 -53.893  0.00  0.00    +0.000 OA
BRANCH  59  61
ATOM     60  O   UNL     1     -69.073 -48.050 -52.908  0.00  0.00    +0.000 OA
ATOM     61  C   UNL     1     -68.752 -47.241 -53.768  0.00  0.00    +0.000 C 
ATOM     62  C   UNL     1     -69.672 -46.690 -54.813  0.00  0.00    +0.000 C 
ENDBRANCH  59  61
ENDBRANCH   9  59
TORSDOF 12
ENDMDL
