MODEL 1
REMARK VINA RESULT:      -4.8      0.000      0.000
REMARK  Name = Vorinostat.pdbqt.pdb
REMARK  6 active torsions:
REMARK  status: ('A' for Active; 'I' for Inactive)
REMARK    1  A    between atoms: C_1  and  C_2
REMARK    2  A    between atoms: C_3  and  C_4
REMARK    3  A    between atoms: C_5  and  C_8
REMARK    4  A    between atoms: N_7  and  O_10
REMARK    5  A    between atoms: C_12  and  C_15
REMARK    6  A    between atoms: N_14  and  C_17
REMARK                            x       y       z     vdW  Elec       q    Type
REMARK                         _______ _______ _______ _____ _____    ______ ____
ROOT
ATOM      1  C   UNL     1     -65.106 -55.403 -16.237  0.00  0.00    +0.000 C 
ATOM      2  C   UNL     1     -64.712 -56.662 -15.459  0.00  0.00    +0.000 C 
ENDROOT
BRANCH   2   5
ATOM      3  O   UNL     1     -63.416 -57.780 -13.933  0.00  0.00    +0.000 OA
ATOM      4  N   UNL     1     -65.107 -58.955 -15.026  0.00  0.00    +0.000 N 
ATOM      5  C   UNL     1     -64.342 -57.851 -14.727  0.00  0.00    +0.000 C 
ATOM      6  H   UNL     1     -65.841 -58.839 -15.714  0.00  0.00    +0.000 HD
BRANCH   4   7
ATOM      7  C   UNL     1     -64.958 -60.232 -14.458  0.00  0.00    +0.000 A 
ATOM      8  C   UNL     1     -64.236 -61.184 -15.179  0.00  0.00    +0.000 A 
ATOM      9  C   UNL     1     -65.497 -60.577 -13.220  0.00  0.00    +0.000 A 
ATOM     10  C   UNL     1     -64.056 -62.468 -14.668  0.00  0.00    +0.000 A 
ATOM     11  C   UNL     1     -65.318 -61.860 -12.705  0.00  0.00    +0.000 A 
ATOM     12  C   UNL     1     -64.597 -62.805 -13.430  0.00  0.00    +0.000 A 
ENDBRANCH   4   7
ENDBRANCH   2   5
BRANCH   1  13
ATOM     13  C   UNL     1     -65.498 -54.145 -17.017  0.00  0.00    +0.000 C 
ATOM     14  C   UNL     1     -65.890 -52.886 -17.797  0.00  0.00    +0.000 C 
BRANCH  14  15
ATOM     15  C   UNL     1     -66.280 -51.627 -18.576  0.00  0.00    +0.000 C 
ATOM     16  C   UNL     1     -66.672 -50.367 -19.354  0.00  0.00    +0.000 C 
BRANCH  16  19
ATOM     17  O   UNL     1     -66.442 -48.129 -19.897  0.00  0.00    +0.000 OA
ATOM     18  N   UNL     1     -68.064 -49.324 -20.976  0.00  0.00    +0.000 N 
ATOM     19  C   UNL     1     -67.038 -49.183 -20.084  0.00  0.00    +0.000 C 
ATOM     20  H   UNL     1     -68.540 -50.195 -21.172  0.00  0.00    +0.000 HD
BRANCH  18  21
ATOM     21  O   UNL     1     -68.431 -48.192 -21.735  0.00  0.00    +0.000 OA
ATOM     22  H   UNL     1     -67.582 -47.928 -22.153  0.00  0.00    +0.000 HD
ENDBRANCH  18  21
ENDBRANCH  16  19
ENDBRANCH  14  15
ENDBRANCH   1  13
TORSDOF 6
ENDMDL
MODEL 2
REMARK VINA RESULT:      -4.8     18.180     20.559
REMARK  Name = Vorinostat.pdbqt.pdb
REMARK  6 active torsions:
REMARK  status: ('A' for Active; 'I' for Inactive)
REMARK    1  A    between atoms: C_1  and  C_2
REMARK    2  A    between atoms: C_3  and  C_4
REMARK    3  A    between atoms: C_5  and  C_8
REMARK    4  A    between atoms: N_7  and  O_10
REMARK    5  A    between atoms: C_12  and  C_15
REMARK    6  A    between atoms: N_14  and  C_17
REMARK                            x       y       z     vdW  Elec       q    Type
REMARK                         _______ _______ _______ _____ _____    ______ ____
ROOT
ATOM      1  C   UNL     1     -68.181 -57.073 -35.772  0.00  0.00    +0.000 C 
ATOM      2  C   UNL     1     -68.458 -57.215 -34.272  0.00  0.00    +0.000 C 
ENDROOT
BRANCH   2   5
ATOM      3  O   UNL     1     -67.953 -58.027 -32.188  0.00  0.00    +0.000 OA
ATOM      4  N   UNL     1     -69.835 -56.672 -32.426  0.00  0.00    +0.000 N 
ATOM      5  C   UNL     1     -68.718 -57.350 -32.858  0.00  0.00    +0.000 C 
ATOM      6  H   UNL     1     -70.362 -56.155 -33.120  0.00  0.00    +0.000 HD
BRANCH   4   7
ATOM      7  C   UNL     1     -70.312 -56.637 -31.104  0.00  0.00    +0.000 A 
ATOM      8  C   UNL     1     -70.051 -55.493 -30.349  0.00  0.00    +0.000 A 
ATOM      9  C   UNL     1     -71.026 -57.688 -30.530  0.00  0.00    +0.000 A 
ATOM     10  C   UNL     1     -70.497 -55.401 -29.033  0.00  0.00    +0.000 A 
ATOM     11  C   UNL     1     -71.475 -57.598 -29.213  0.00  0.00    +0.000 A 
ATOM     12  C   UNL     1     -71.210 -56.454 -28.465  0.00  0.00    +0.000 A 
ENDBRANCH   4   7
ENDBRANCH   2   5
BRANCH   1  13
ATOM     13  C   UNL     1     -67.902 -56.930 -37.270  0.00  0.00    +0.000 C 
ATOM     14  C   UNL     1     -67.622 -56.787 -38.770  0.00  0.00    +0.000 C 
BRANCH  14  15
ATOM     15  C   UNL     1     -67.343 -56.643 -40.268  0.00  0.00    +0.000 C 
ATOM     16  C   UNL     1     -67.064 -56.500 -41.768  0.00  0.00    +0.000 C 
BRANCH  16  19
ATOM     17  O   UNL     1     -67.451 -55.575 -43.854  0.00  0.00    +0.000 OA
ATOM     18  N   UNL     1     -65.810 -57.155 -43.679  0.00  0.00    +0.000 N 
ATOM     19  C   UNL     1     -66.805 -56.364 -43.176  0.00  0.00    +0.000 C 
ATOM     20  H   UNL     1     -65.239 -57.783 -43.127  0.00  0.00    +0.000 HD
BRANCH  18  21
ATOM     21  O   UNL     1     -65.502 -57.027 -45.051  0.00  0.00    +0.000 OA
ATOM     22  H   UNL     1     -65.885 -56.151 -45.277  0.00  0.00    +0.000 HD
ENDBRANCH  18  21
ENDBRANCH  16  19
ENDBRANCH  14  15
ENDBRANCH   1  13
TORSDOF 6
ENDMDL
MODEL 3
REMARK VINA RESULT:      -4.7     13.838     16.711
REMARK  Name = Vorinostat.pdbqt.pdb
REMARK  6 active torsions:
REMARK  status: ('A' for Active; 'I' for Inactive)
REMARK    1  A    between atoms: C_1  and  C_2
REMARK    2  A    between atoms: C_3  and  C_4
REMARK    3  A    between atoms: C_5  and  C_8
REMARK    4  A    between atoms: N_7  and  O_10
REMARK    5  A    between atoms: C_12  and  C_15
REMARK    6  A    between atoms: N_14  and  C_17
REMARK                            x       y       z     vdW  Elec       q    Type
REMARK                         _______ _______ _______ _____ _____    ______ ____
ROOT
ATOM      1  C   UNL     1     -71.568 -57.807 -29.071  0.00  0.00    +0.000 C 
ATOM      2  C   UNL     1     -71.101 -58.023 -30.514  0.00  0.00    +0.000 C 
ENDROOT
BRANCH   2   5
ATOM      3  O   UNL     1     -71.169 -59.130 -32.521  0.00  0.00    +0.000 OA
ATOM      4  N   UNL     1     -69.692 -57.342 -32.288  0.00  0.00    +0.000 N 
ATOM      5  C   UNL     1     -70.662 -58.226 -31.875  0.00  0.00    +0.000 C 
ATOM      6  H   UNL     1     -69.380 -56.648 -31.619  0.00  0.00    +0.000 HD
BRANCH   4   7
ATOM      7  C   UNL     1     -69.093 -57.318 -33.559  0.00  0.00    +0.000 A 
ATOM      8  C   UNL     1     -67.784 -57.789 -33.671  0.00  0.00    +0.000 A 
ATOM      9  C   UNL     1     -69.751 -56.850 -34.696  0.00  0.00    +0.000 A 
ATOM     10  C   UNL     1     -67.139 -57.790 -34.906  0.00  0.00    +0.000 A 
ATOM     11  C   UNL     1     -69.108 -56.850 -35.933  0.00  0.00    +0.000 A 
ATOM     12  C   UNL     1     -67.801 -57.321 -36.037  0.00  0.00    +0.000 A 
ENDBRANCH   4   7
ENDBRANCH   2   5
BRANCH   1  13
ATOM     13  C   UNL     1     -72.034 -57.589 -27.629  0.00  0.00    +0.000 C 
ATOM     14  C   UNL     1     -72.499 -57.372 -26.186  0.00  0.00    +0.000 C 
BRANCH  14  15
ATOM     15  C   UNL     1     -72.964 -57.155 -24.743  0.00  0.00    +0.000 C 
ATOM     16  C   UNL     1     -73.430 -56.937 -23.300  0.00  0.00    +0.000 C 
BRANCH  16  19
ATOM     17  O   UNL     1     -74.972 -57.117 -21.583  0.00  0.00    +0.000 OA
ATOM     18  N   UNL     1     -72.981 -56.096 -21.122  0.00  0.00    +0.000 N 
ATOM     19  C   UNL     1     -73.868 -56.731 -21.946  0.00  0.00    +0.000 C 
ATOM     20  H   UNL     1     -72.049 -55.806 -21.392  0.00  0.00    +0.000 HD
BRANCH  18  21
ATOM     21  O   UNL     1     -73.360 -55.904 -19.775  0.00  0.00    +0.000 OA
ATOM     22  H   UNL     1     -72.840 -55.112 -19.515  0.00  0.00    +0.000 HD
ENDBRANCH  18  21
ENDBRANCH  16  19
ENDBRANCH  14  15
ENDBRANCH   1  13
TORSDOF 6
ENDMDL
MODEL 4
REMARK VINA RESULT:      -4.6     54.255     57.565
REMARK  Name = Vorinostat.pdbqt.pdb
REMARK  6 active torsions:
REMARK  status: ('A' for Active; 'I' for Inactive)
REMARK    1  A    between atoms: C_1  and  C_2
REMARK    2  A    between atoms: C_3  and  C_4
REMARK    3  A    between atoms: C_5  and  C_8
REMARK    4  A    between atoms: N_7  and  O_10
REMARK    5  A    between atoms: C_12  and  C_15
REMARK    6  A    between atoms: N_14  and  C_17
REMARK                            x       y       z     vdW  Elec       q    Type
REMARK                         _______ _______ _______ _____ _____    ______ ____
ROOT
ATOM      1  C   UNL     1     -65.299 -60.859 -73.096  0.00  0.00    +0.000 C 
ATOM      2  C   UNL     1     -65.058 -60.855 -74.608  0.00  0.00    +0.000 C 
ENDROOT
BRANCH   2   5
ATOM      3  O   UNL     1     -65.705 -61.298 -76.763  0.00  0.00    +0.000 OA
ATOM      4  N   UNL     1     -63.619 -60.319 -76.408  0.00  0.00    +0.000 N 
ATOM      5  C   UNL     1     -64.833 -60.849 -76.035  0.00  0.00    +0.000 C 
ATOM      6  H   UNL     1     -63.009 -59.990 -75.670  0.00  0.00    +0.000 HD
BRANCH   4   7
ATOM      7  C   UNL     1     -63.151 -60.195 -77.728  0.00  0.00    +0.000 A 
ATOM      8  C   UNL     1     -63.223 -58.938 -78.329  0.00  0.00    +0.000 A 
ATOM      9  C   UNL     1     -62.625 -61.268 -78.447  0.00  0.00    +0.000 A 
ATOM     10  C   UNL     1     -62.775 -58.754 -79.635  0.00  0.00    +0.000 A 
ATOM     11  C   UNL     1     -62.175 -61.087 -79.754  0.00  0.00    +0.000 A 
ATOM     12  C   UNL     1     -62.250 -59.829 -80.347  0.00  0.00    +0.000 A 
ENDBRANCH   4   7
ENDBRANCH   2   5
BRANCH   1  13
ATOM     13  C   UNL     1     -65.539 -60.862 -71.583  0.00  0.00    +0.000 C 
ATOM     14  C   UNL     1     -65.779 -60.866 -70.070  0.00  0.00    +0.000 C 
BRANCH  14  15
ATOM     15  C   UNL     1     -66.018 -60.870 -68.558  0.00  0.00    +0.000 C 
ATOM     16  C   UNL     1     -66.257 -60.874 -67.045  0.00  0.00    +0.000 C 
BRANCH  16  19
ATOM     17  O   UNL     1     -65.858 -61.643 -64.898  0.00  0.00    +0.000 OA
ATOM     18  N   UNL     1     -67.403 -59.981 -65.162  0.00  0.00    +0.000 N 
ATOM     19  C   UNL     1     -66.479 -60.876 -65.624  0.00  0.00    +0.000 C 
ATOM     20  H   UNL     1     -67.896 -59.313 -65.741  0.00  0.00    +0.000 HD
BRANCH  18  21
ATOM     21  O   UNL     1     -67.625 -59.930 -63.769  0.00  0.00    +0.000 OA
ATOM     22  H   UNL     1     -66.716 -59.845 -63.408  0.00  0.00    +0.000 HD
ENDBRANCH  18  21
ENDBRANCH  16  19
ENDBRANCH  14  15
ENDBRANCH   1  13
TORSDOF 6
ENDMDL
MODEL 5
REMARK VINA RESULT:      -4.5     11.698     13.327
REMARK  Name = Vorinostat.pdbqt.pdb
REMARK  6 active torsions:
REMARK  status: ('A' for Active; 'I' for Inactive)
REMARK    1  A    between atoms: C_1  and  C_2
REMARK    2  A    between atoms: C_3  and  C_4
REMARK    3  A    between atoms: C_5  and  C_8
REMARK    4  A    between atoms: N_7  and  O_10
REMARK    5  A    between atoms: C_12  and  C_15
REMARK    6  A    between atoms: N_14  and  C_17
REMARK                            x       y       z     vdW  Elec       q    Type
REMARK                         _______ _______ _______ _____ _____    ______ ____
ROOT
ATOM      1  C   UNL     1     -60.488 -55.971 -25.421  0.00  0.00    +0.000 C 
ATOM      2  C   UNL     1     -59.863 -56.455 -26.733  0.00  0.00    +0.000 C 
ENDROOT
BRANCH   2   5
ATOM      3  O   UNL     1     -58.060 -57.054 -28.016  0.00  0.00    +0.000 OA
ATOM      4  N   UNL     1     -60.183 -57.137 -28.976  0.00  0.00    +0.000 N 
ATOM      5  C   UNL     1     -59.272 -56.912 -27.970  0.00  0.00    +0.000 C 
ATOM      6  H   UNL     1     -61.159 -56.966 -28.766  0.00  0.00    +0.000 HD
BRANCH   4   7
ATOM      7  C   UNL     1     -59.876 -57.582 -30.273  0.00  0.00    +0.000 A 
ATOM      8  C   UNL     1     -59.642 -56.617 -31.255  0.00  0.00    +0.000 A 
ATOM      9  C   UNL     1     -59.796 -58.933 -30.610  0.00  0.00    +0.000 A 
ATOM     10  C   UNL     1     -59.334 -56.999 -32.558  0.00  0.00    +0.000 A 
ATOM     11  C   UNL     1     -59.488 -59.317 -31.914  0.00  0.00    +0.000 A 
ATOM     12  C   UNL     1     -59.256 -58.349 -32.888  0.00  0.00    +0.000 A 
ENDBRANCH   4   7
ENDBRANCH   2   5
BRANCH   1  13
ATOM     13  C   UNL     1     -61.111 -55.488 -24.109  0.00  0.00    +0.000 C 
ATOM     14  C   UNL     1     -61.735 -55.005 -22.796  0.00  0.00    +0.000 C 
BRANCH  14  15
ATOM     15  C   UNL     1     -62.359 -54.523 -21.483  0.00  0.00    +0.000 C 
ATOM     16  C   UNL     1     -62.983 -54.039 -20.170  0.00  0.00    +0.000 C 
BRANCH  16  19
ATOM     17  O   UNL     1     -62.873 -53.070 -18.071  0.00  0.00    +0.000 OA
ATOM     18  N   UNL     1     -64.920 -53.757 -18.820  0.00  0.00    +0.000 N 
ATOM     19  C   UNL     1     -63.569 -53.583 -18.939  0.00  0.00    +0.000 C 
ATOM     20  H   UNL     1     -65.517 -54.142 -19.541  0.00  0.00    +0.000 HD
BRANCH  18  21
ATOM     21  O   UNL     1     -65.538 -53.292 -17.638  0.00  0.00    +0.000 OA
ATOM     22  H   UNL     1     -66.423 -53.717 -17.676  0.00  0.00    +0.000 HD
ENDBRANCH  18  21
ENDBRANCH  16  19
ENDBRANCH  14  15
ENDBRANCH   1  13
TORSDOF 6
ENDMDL
MODEL 6
REMARK VINA RESULT:      -4.4     33.228     36.706
REMARK  Name = Vorinostat.pdbqt.pdb
REMARK  6 active torsions:
REMARK  status: ('A' for Active; 'I' for Inactive)
REMARK    1  A    between atoms: C_1  and  C_2
REMARK    2  A    between atoms: C_3  and  C_4
REMARK    3  A    between atoms: C_5  and  C_8
REMARK    4  A    between atoms: N_7  and  O_10
REMARK    5  A    between atoms: C_12  and  C_15
REMARK    6  A    between atoms: N_14  and  C_17
REMARK                            x       y       z     vdW  Elec       q    Type
REMARK                         _______ _______ _______ _____ _____    ______ ____
ROOT
ATOM      1  C   UNL     1     -61.518 -57.204 -51.528  0.00  0.00    +0.000 C 
ATOM      2  C   UNL     1     -61.086 -57.278 -52.995  0.00  0.00    +0.000 C 
ENDROOT
BRANCH   2   5
ATOM      3  O   UNL     1     -59.786 -58.125 -54.683  0.00  0.00    +0.000 OA
ATOM      4  N   UNL     1     -61.375 -56.505 -55.212  0.00  0.00    +0.000 N 
ATOM      5  C   UNL     1     -60.679 -57.350 -54.379  0.00  0.00    +0.000 C 
ATOM      6  H   UNL     1     -62.090 -55.923 -54.792  0.00  0.00    +0.000 HD
BRANCH   4   7
ATOM      7  C   UNL     1     -61.179 -56.377 -56.598  0.00  0.00    +0.000 A 
ATOM      8  C   UNL     1     -60.222 -55.462 -57.038  0.00  0.00    +0.000 A 
ATOM      9  C   UNL     1     -61.896 -57.120 -57.535  0.00  0.00    +0.000 A 
ATOM     10  C   UNL     1     -59.984 -55.291 -58.401  0.00  0.00    +0.000 A 
ATOM     11  C   UNL     1     -61.659 -56.952 -58.898  0.00  0.00    +0.000 A 
ATOM     12  C   UNL     1     -60.703 -56.038 -59.330  0.00  0.00    +0.000 A 
ENDBRANCH   4   7
ENDBRANCH   2   5
BRANCH   1  13
ATOM     13  C   UNL     1     -61.952 -57.129 -50.061  0.00  0.00    +0.000 C 
ATOM     14  C   UNL     1     -62.386 -57.056 -48.594  0.00  0.00    +0.000 C 
BRANCH  14  15
ATOM     15  C   UNL     1     -62.821 -56.982 -47.128  0.00  0.00    +0.000 C 
ATOM     16  C   UNL     1     -63.257 -56.908 -45.661  0.00  0.00    +0.000 C 
BRANCH  16  19
ATOM     17  O   UNL     1     -64.855 -56.892 -43.986  0.00  0.00    +0.000 OA
ATOM     18  N   UNL     1     -62.662 -56.719 -43.366  0.00  0.00    +0.000 N 
ATOM     19  C   UNL     1     -63.668 -56.839 -44.284  0.00  0.00    +0.000 C 
ATOM     20  H   UNL     1     -61.675 -56.715 -43.590  0.00  0.00    +0.000 HD
BRANCH  18  21
ATOM     21  O   UNL     1     -63.024 -56.681 -42.001  0.00  0.00    +0.000 OA
ATOM     22  H   UNL     1     -62.857 -55.744 -41.760  0.00  0.00    +0.000 HD
ENDBRANCH  18  21
ENDBRANCH  16  19
ENDBRANCH  14  15
ENDBRANCH   1  13
TORSDOF 6
ENDMDL
MODEL 7
REMARK VINA RESULT:      -4.4     17.122     20.940
REMARK  Name = Vorinostat.pdbqt.pdb
REMARK  6 active torsions:
REMARK  status: ('A' for Active; 'I' for Inactive)
REMARK    1  A    between atoms: C_1  and  C_2
REMARK    2  A    between atoms: C_3  and  C_4
REMARK    3  A    between atoms: C_5  and  C_8
REMARK    4  A    between atoms: N_7  and  O_10
REMARK    5  A    between atoms: C_12  and  C_15
REMARK    6  A    between atoms: N_14  and  C_17
REMARK                            x       y       z     vdW  Elec       q    Type
REMARK                         _______ _______ _______ _____ _____    ______ ____
ROOT
ATOM      1  C   UNL     1     -70.075 -56.783 -34.527  0.00  0.00    +0.000 C 
ATOM      2  C   UNL     1     -69.735 -56.662 -36.015  0.00  0.00    +0.000 C 
ENDROOT
BRANCH   2   5
ATOM      3  O   UNL     1     -70.222 -56.971 -38.234  0.00  0.00    +0.000 OA
ATOM      4  N   UNL     1     -68.201 -55.955 -37.671  0.00  0.00    +0.000 N 
ATOM      5  C   UNL     1     -69.417 -56.548 -37.419  0.00  0.00    +0.000 C 
ATOM      6  H   UNL     1     -67.653 -55.660 -36.872  0.00  0.00    +0.000 HD
BRANCH   4   7
ATOM      7  C   UNL     1     -67.652 -55.722 -38.944  0.00  0.00    +0.000 A 
ATOM      8  C   UNL     1     -67.341 -54.406 -39.289  0.00  0.00    +0.000 A 
ATOM      9  C   UNL     1     -67.408 -56.745 -39.860  0.00  0.00    +0.000 A 
ATOM     10  C   UNL     1     -66.795 -54.115 -40.536  0.00  0.00    +0.000 A 
ATOM     11  C   UNL     1     -66.861 -56.456 -41.109  0.00  0.00    +0.000 A 
ATOM     12  C   UNL     1     -66.554 -55.140 -41.447  0.00  0.00    +0.000 A 
ENDBRANCH   4   7
ENDBRANCH   2   5
BRANCH   1  13
ATOM     13  C   UNL     1     -70.416 -56.902 -33.039  0.00  0.00    +0.000 C 
ATOM     14  C   UNL     1     -70.756 -57.020 -31.549  0.00  0.00    +0.000 C 
BRANCH  14  15
ATOM     15  C   UNL     1     -71.095 -57.138 -30.061  0.00  0.00    +0.000 C 
ATOM     16  C   UNL     1     -71.436 -57.257 -28.572  0.00  0.00    +0.000 C 
BRANCH  16  19
ATOM     17  O   UNL     1     -70.936 -57.818 -26.383  0.00  0.00    +0.000 OA
ATOM     18  N   UNL     1     -73.004 -56.947 -26.812  0.00  0.00    +0.000 N 
ATOM     19  C   UNL     1     -71.756 -57.370 -27.175  0.00  0.00    +0.000 C 
ATOM     20  H   UNL     1     -73.680 -56.537 -27.445  0.00  0.00    +0.000 HD
BRANCH  18  21
ATOM     21  O   UNL     1     -73.345 -57.011 -25.443  0.00  0.00    +0.000 OA
ATOM     22  H   UNL     1     -72.853 -57.804 -25.135  0.00  0.00    +0.000 HD
ENDBRANCH  18  21
ENDBRANCH  16  19
ENDBRANCH  14  15
ENDBRANCH   1  13
TORSDOF 6
ENDMDL
MODEL 8
REMARK VINA RESULT:      -4.4     46.147     49.308
REMARK  Name = Vorinostat.pdbqt.pdb
REMARK  6 active torsions:
REMARK  status: ('A' for Active; 'I' for Inactive)
REMARK    1  A    between atoms: C_1  and  C_2
REMARK    2  A    between atoms: C_3  and  C_4
REMARK    3  A    between atoms: C_5  and  C_8
REMARK    4  A    between atoms: N_7  and  O_10
REMARK    5  A    between atoms: C_12  and  C_15
REMARK    6  A    between atoms: N_14  and  C_17
REMARK                            x       y       z     vdW  Elec       q    Type
REMARK                         _______ _______ _______ _____ _____    ______ ____
ROOT
ATOM      1  C   UNL     1     -53.197 -55.294 -63.086  0.00  0.00    +0.000 C 
ATOM      2  C   UNL     1     -53.523 -56.149 -64.314  0.00  0.00    +0.000 C 
ENDROOT
BRANCH   2   5
ATOM      3  O   UNL     1     -54.075 -58.140 -65.308  0.00  0.00    +0.000 OA
ATOM      4  N   UNL     1     -53.808 -56.260 -66.660  0.00  0.00    +0.000 N 
ATOM      5  C   UNL     1     -53.830 -56.955 -65.473  0.00  0.00    +0.000 C 
ATOM      6  H   UNL     1     -53.583 -55.274 -66.617  0.00  0.00    +0.000 HD
BRANCH   4   7
ATOM      7  C   UNL     1     -54.068 -56.802 -67.931  0.00  0.00    +0.000 A 
ATOM      8  C   UNL     1     -52.976 -57.169 -68.718  0.00  0.00    +0.000 A 
ATOM      9  C   UNL     1     -55.359 -56.985 -68.424  0.00  0.00    +0.000 A 
ATOM     10  C   UNL     1     -53.172 -57.710 -69.987  0.00  0.00    +0.000 A 
ATOM     11  C   UNL     1     -55.558 -57.527 -69.693  0.00  0.00    +0.000 A 
ATOM     12  C   UNL     1     -54.464 -57.890 -70.473  0.00  0.00    +0.000 A 
ENDBRANCH   4   7
ENDBRANCH   2   5
BRANCH   1  13
ATOM     13  C   UNL     1     -52.869 -54.439 -61.859  0.00  0.00    +0.000 C 
ATOM     14  C   UNL     1     -52.541 -53.585 -60.630  0.00  0.00    +0.000 C 
BRANCH  14  15
ATOM     15  C   UNL     1     -52.215 -52.730 -59.403  0.00  0.00    +0.000 C 
ATOM     16  C   UNL     1     -51.889 -51.874 -58.174  0.00  0.00    +0.000 C 
BRANCH  16  19
ATOM     17  O   UNL     1     -52.150 -51.276 -55.953  0.00  0.00    +0.000 OA
ATOM     18  N   UNL     1     -50.643 -50.098 -57.202  0.00  0.00    +0.000 N 
ATOM     19  C   UNL     1     -51.585 -51.071 -57.021  0.00  0.00    +0.000 C 
ATOM     20  H   UNL     1     -50.137 -49.940 -58.064  0.00  0.00    +0.000 HD
BRANCH  18  21
ATOM     21  O   UNL     1     -50.293 -49.309 -56.084  0.00  0.00    +0.000 OA
ATOM     22  H   UNL     1     -49.589 -49.844 -55.655  0.00  0.00    +0.000 HD
ENDBRANCH  18  21
ENDBRANCH  16  19
ENDBRANCH  14  15
ENDBRANCH   1  13
TORSDOF 6
ENDMDL
MODEL 9
REMARK VINA RESULT:      -4.4     23.674     28.559
REMARK  Name = Vorinostat.pdbqt.pdb
REMARK  6 active torsions:
REMARK  status: ('A' for Active; 'I' for Inactive)
REMARK    1  A    between atoms: C_1  and  C_2
REMARK    2  A    between atoms: C_3  and  C_4
REMARK    3  A    between atoms: C_5  and  C_8
REMARK    4  A    between atoms: N_7  and  O_10
REMARK    5  A    between atoms: C_12  and  C_15
REMARK    6  A    between atoms: N_14  and  C_17
REMARK                            x       y       z     vdW  Elec       q    Type
REMARK                         _______ _______ _______ _____ _____    ______ ____
ROOT
ATOM      1  C   UNL     1     -59.990 -46.306 -42.092  0.00  0.00    +0.000 C 
ATOM      2  C   UNL     1     -61.008 -46.128 -40.962  0.00  0.00    +0.000 C 
ENDROOT
BRANCH   2   5
ATOM      3  O   UNL     1     -62.105 -44.847 -39.409  0.00  0.00    +0.000 OA
ATOM      4  N   UNL     1     -62.631 -47.113 -39.550  0.00  0.00    +0.000 N 
ATOM      5  C   UNL     1     -61.967 -45.959 -39.895  0.00  0.00    +0.000 C 
ATOM      6  H   UNL     1     -62.394 -47.956 -40.060  0.00  0.00    +0.000 HD
BRANCH   4   7
ATOM      7  C   UNL     1     -63.611 -47.226 -38.549  0.00  0.00    +0.000 A 
ATOM      8  C   UNL     1     -63.183 -47.457 -37.241  0.00  0.00    +0.000 A 
ATOM      9  C   UNL     1     -64.976 -47.117 -38.812  0.00  0.00    +0.000 A 
ATOM     10  C   UNL     1     -64.108 -47.578 -36.207  0.00  0.00    +0.000 A 
ATOM     11  C   UNL     1     -65.905 -47.237 -37.779  0.00  0.00    +0.000 A 
ATOM     12  C   UNL     1     -65.470 -47.467 -36.477  0.00  0.00    +0.000 A 
ENDBRANCH   4   7
ENDBRANCH   2   5
BRANCH   1  13
ATOM     13  C   UNL     1     -58.973 -46.483 -43.223  0.00  0.00    +0.000 C 
ATOM     14  C   UNL     1     -57.955 -46.660 -44.354  0.00  0.00    +0.000 C 
BRANCH  14  15
ATOM     15  C   UNL     1     -56.937 -46.837 -45.484  0.00  0.00    +0.000 C 
ATOM     16  C   UNL     1     -55.919 -47.015 -46.615  0.00  0.00    +0.000 C 
BRANCH  16  19
ATOM     17  O   UNL     1     -54.279 -46.241 -48.054  0.00  0.00    +0.000 OA
ATOM     18  N   UNL     1     -54.880 -48.440 -48.211  0.00  0.00    +0.000 N 
ATOM     19  C   UNL     1     -54.964 -47.184 -47.677  0.00  0.00    +0.000 C 
ATOM     20  H   UNL     1     -55.409 -49.240 -47.886  0.00  0.00    +0.000 HD
BRANCH  18  21
ATOM     21  O   UNL     1     -53.931 -48.654 -49.233  0.00  0.00    +0.000 OA
ATOM     22  H   UNL     1     -53.335 -49.328 -48.837  0.00  0.00    +0.000 HD
ENDBRANCH  18  21
ENDBRANCH  16  19
ENDBRANCH  14  15
ENDBRANCH   1  13
TORSDOF 6
ENDMDL
